/*---------------------------------------------------------------------------*\
  =========                 |
  \\      /  F ield         | OpenFOAM: The Open Source CFD Toolbox
   \\    /   O peration     | Website:  https://openfoam.org
    \\  /    A nd           | Version:  8
     \\/     M anipulation  |
\*---------------------------------------------------------------------------*/
Build  : 8-1c9b5879390b
Exec   : interFoam -parallel
Date   : Nov 21 2021
Time   : 03:11:36
Host   : "perpetua"
PID    : 9210
I/O    : uncollated
Case   : /home/the_batman_who_laughs/OpenFOAM/the_batman_who_laughs-8/run/Nagy/Bottom_Filling_Tank/fillingOfTank_2/case
nProcs : 4
Slaves : 
3
(
"perpetua.9211"
"perpetua.9212"
"perpetua.9213"
)

Pstream initialized with:
    floatTransfer      : 0
    nProcsSimpleSum    : 0
    commsType          : nonBlocking
    polling iterations : 0
sigFpe : Enabling floating point exception trapping (FOAM_SIGFPE).
fileModificationChecking : Monitoring run-time modified files using timeStampMaster (fileModificationSkew 10)
allowSystemOperations : Allowing user-supplied system call operations

// * * * * * * * * * * * * * * * * * * * * * * * * * * * * * * * * * * * * * //
Create time

Create mesh for time = 0

Selecting dynamicFvMesh staticFvMesh

PIMPLE: No convergence criteria found


PIMPLE: Operating solver in transient mode with 1 outer corrector
PIMPLE: Operating solver in PISO mode


Reading field p_rgh

Reading field U

Reading/calculating face flux field phi

Reading transportProperties

Selecting incompressible transport model Newtonian
Selecting incompressible transport model Newtonian
Selecting turbulence model type laminar
Selecting laminar stress model Stokes

Reading g

Reading hRef
Calculating field g.h

No MRF models present

No finite volume options present
DICPCG:  Solving for pcorr, Initial residual = 1, Final residual = 7.51182e-06, No Iterations 54
time step continuity errors : sum local = 5.15517e-09, global = -1.15366e-10, cumulative = -1.15366e-10
Courant Number mean: 0.026058 max: 0.48932

Starting time loop

Courant Number mean: 0.026058 max: 0.48932
Interface Courant Number mean: 0 max: 0
deltaT = 0.00555556
Time = 0.00555556

smoothSolver:  Solving for alpha.water, Initial residual = 0.0185512, Final residual = 1.60592e-09, No Iterations 3
Phase-1 volume fraction = 0.0105664  Min(alpha.water) = 2.77407e-79  Max(alpha.water) = 1
MULES: Correcting alpha.water
MULES: Correcting alpha.water
Phase-1 volume fraction = 0.0105664  Min(alpha.water) = -2.80367e-36  Max(alpha.water) = 1
DICPCG:  Solving for p_rgh, Initial residual = 1, Final residual = 0.0278565, No Iterations 27
time step continuity errors : sum local = 4.85527e-05, global = -2.47436e-06, cumulative = -2.47448e-06
DICPCG:  Solving for p_rgh, Initial residual = 0.000624126, Final residual = 2.92675e-05, No Iterations 16
time step continuity errors : sum local = 7.40117e-05, global = 4.32791e-05, cumulative = 4.08046e-05
DICPCG:  Solving for p_rgh, Initial residual = 0.000264803, Final residual = 9.95162e-08, No Iterations 31
time step continuity errors : sum local = 1.7433e-07, global = 7.84689e-09, cumulative = 4.08125e-05
ExecutionTime = 0.03 s  ClockTime = 0 s

Courant Number mean: 0.0289523 max: 0.511496
Interface Courant Number mean: 0.00152531 max: 0.389099
deltaT = 0.00634921
Time = 0.0119048

smoothSolver:  Solving for alpha.water, Initial residual = 0.0202057, Final residual = 6.08184e-09, No Iterations 3
Phase-1 volume fraction = 0.0114379  Min(alpha.water) = 6.30845e-66  Max(alpha.water) = 1
MULES: Correcting alpha.water
MULES: Correcting alpha.water
Phase-1 volume fraction = 0.0114379  Min(alpha.water) = 6.30845e-66  Max(alpha.water) = 1
DICPCG:  Solving for p_rgh, Initial residual = 0.00105994, Final residual = 3.84746e-05, No Iterations 27
time step continuity errors : sum local = 8.68694e-05, global = 3.42404e-06, cumulative = 4.42365e-05
DICPCG:  Solving for p_rgh, Initial residual = 0.00621266, Final residual = 0.000276515, No Iterations 9
time step continuity errors : sum local = 1.63741e-05, global = 6.65663e-07, cumulative = 4.49022e-05
DICPCG:  Solving for p_rgh, Initial residual = 0.00538355, Final residual = 8.56854e-08, No Iterations 44
time step continuity errors : sum local = 2.11175e-09, global = 4.03295e-11, cumulative = 4.49022e-05
ExecutionTime = 0.05 s  ClockTime = 0 s

Courant Number mean: 0.0330869 max: 0.557294
Interface Courant Number mean: 0.00261494 max: 0.444861
deltaT = 0.00634921
Time = 0.018254

smoothSolver:  Solving for alpha.water, Initial residual = 0.0185982, Final residual = 8.74282e-09, No Iterations 3
Phase-1 volume fraction = 0.0123094  Min(alpha.water) = 7.36959e-65  Max(alpha.water) = 1
MULES: Correcting alpha.water
MULES: Correcting alpha.water
Phase-1 volume fraction = 0.0123094  Min(alpha.water) = 7.36959e-65  Max(alpha.water) = 1
DICPCG:  Solving for p_rgh, Initial residual = 0.0242123, Final residual = 0.00120696, No Iterations 3
time step continuity errors : sum local = 2.91314e-05, global = -1.56924e-08, cumulative = 4.48865e-05
DICPCG:  Solving for p_rgh, Initial residual = 0.00762045, Final residual = 0.000344545, No Iterations 8
time step continuity errors : sum local = 7.85247e-06, global = 3.25714e-09, cumulative = 4.48898e-05
DICPCG:  Solving for p_rgh, Initial residual = 0.0205446, Final residual = 8.87495e-08, No Iterations 46
time step continuity errors : sum local = 2.44089e-10, global = 1.01588e-12, cumulative = 4.48898e-05
ExecutionTime = 0.06 s  ClockTime = 0 s

Courant Number mean: 0.0331053 max: 0.534529
Interface Courant Number mean: 0.00261471 max: 0.444666
deltaT = 0.00634921
Time = 0.0246032

smoothSolver:  Solving for alpha.water, Initial residual = 0.017526, Final residual = 3.64303e-11, No Iterations 4
Phase-1 volume fraction = 0.0131808  Min(alpha.water) = 3.1184e-63  Max(alpha.water) = 1
MULES: Correcting alpha.water
MULES: Correcting alpha.water
Phase-1 volume fraction = 0.0131808  Min(alpha.water) = 3.1184e-63  Max(alpha.water) = 1
DICPCG:  Solving for p_rgh, Initial residual = 0.144654, Final residual = 0.00660816, No Iterations 8
time step continuity errors : sum local = 2.2644e-05, global = -1.9579e-08, cumulative = 4.48702e-05
DICPCG:  Solving for p_rgh, Initial residual = 0.0198469, Final residual = 0.000714738, No Iterations 10
time step continuity errors : sum local = 4.68969e-06, global = 2.95894e-07, cumulative = 4.51661e-05
DICPCG:  Solving for p_rgh, Initial residual = 0.00379029, Final residual = 9.07578e-08, No Iterations 41
time step continuity errors : sum local = 8.25984e-10, global = 8.3437e-12, cumulative = 4.51661e-05
ExecutionTime = 0.07 s  ClockTime = 0 s

Courant Number mean: 0.033197 max: 0.515876
Interface Courant Number mean: 0.00261853 max: 0.447797
deltaT = 0.00634921
Time = 0.0309524

smoothSolver:  Solving for alpha.water, Initial residual = 0.016273, Final residual = 5.31218e-11, No Iterations 4
Phase-1 volume fraction = 0.0140523  Min(alpha.water) = 1.8718e-62  Max(alpha.water) = 1
MULES: Correcting alpha.water
MULES: Correcting alpha.water
Phase-1 volume fraction = 0.0140523  Min(alpha.water) = 1.8718e-62  Max(alpha.water) = 1
DICPCG:  Solving for p_rgh, Initial residual = 0.0418971, Final residual = 0.00174662, No Iterations 8
time step continuity errors : sum local = 1.74867e-05, global = -1.72428e-08, cumulative = 4.51488e-05
DICPCG:  Solving for p_rgh, Initial residual = 0.00591278, Final residual = 0.000294228, No Iterations 9
time step continuity errors : sum local = 5.3937e-06, global = 1.61214e-07, cumulative = 4.53101e-05
DICPCG:  Solving for p_rgh, Initial residual = 0.00111291, Final residual = 5.4937e-08, No Iterations 39
time step continuity errors : sum local = 1.26758e-09, global = -4.27204e-11, cumulative = 4.531e-05
ExecutionTime = 0.08 s  ClockTime = 0 s

Courant Number mean: 0.033409 max: 0.501157
Interface Courant Number mean: 0.00261778 max: 0.446743
deltaT = 0.00634921
Time = 0.0373016

smoothSolver:  Solving for alpha.water, Initial residual = 0.0153736, Final residual = 8.08679e-11, No Iterations 4
Phase-1 volume fraction = 0.0149237  Min(alpha.water) = 6.65382e-62  Max(alpha.water) = 1
MULES: Correcting alpha.water
MULES: Correcting alpha.water
Phase-1 volume fraction = 0.0149237  Min(alpha.water) = 6.65382e-62  Max(alpha.water) = 1
DICPCG:  Solving for p_rgh, Initial residual = 0.0183807, Final residual = 0.000906136, No Iterations 3
time step continuity errors : sum local = 2.12238e-05, global = -6.32533e-09, cumulative = 4.53037e-05
DICPCG:  Solving for p_rgh, Initial residual = 0.00388697, Final residual = 0.000172628, No Iterations 10
time step continuity errors : sum local = 4.44531e-06, global = 4.73755e-08, cumulative = 4.53511e-05
DICPCG:  Solving for p_rgh, Initial residual = 0.000819624, Final residual = 9.20657e-08, No Iterations 37
time step continuity errors : sum local = 2.55718e-09, global = 7.25898e-11, cumulative = 4.53511e-05
ExecutionTime = 0.09 s  ClockTime = 0 s

Courant Number mean: 0.0338902 max: 0.488252
Interface Courant Number mean: 0.00262676 max: 0.454155
deltaT = 0.00634921
Time = 0.0436508

smoothSolver:  Solving for alpha.water, Initial residual = 0.0144677, Final residual = 1.18178e-10, No Iterations 4
Phase-1 volume fraction = 0.0157952  Min(alpha.water) = 2.10553e-61  Max(alpha.water) = 1
MULES: Correcting alpha.water
MULES: Correcting alpha.water
Phase-1 volume fraction = 0.0157952  Min(alpha.water) = 2.10553e-61  Max(alpha.water) = 1
DICPCG:  Solving for p_rgh, Initial residual = 0.00980113, Final residual = 0.000319547, No Iterations 9
time step continuity errors : sum local = 8.74207e-06, global = -3.76198e-08, cumulative = 4.53135e-05
DICPCG:  Solving for p_rgh, Initial residual = 0.00229845, Final residual = 8.83138e-05, No Iterations 11
time step continuity errors : sum local = 3.61793e-06, global = 3.70341e-07, cumulative = 4.56839e-05
DICPCG:  Solving for p_rgh, Initial residual = 0.000620116, Final residual = 9.5631e-08, No Iterations 34
time step continuity errors : sum local = 3.62025e-09, global = -7.97972e-11, cumulative = 4.56838e-05
ExecutionTime = 0.1 s  ClockTime = 0 s

Courant Number mean: 0.0344651 max: 0.477048
Interface Courant Number mean: 0.00262335 max: 0.451093
deltaT = 0.00634921
Time = 0.05

smoothSolver:  Solving for alpha.water, Initial residual = 0.0137084, Final residual = 1.75435e-10, No Iterations 4
Phase-1 volume fraction = 0.0166667  Min(alpha.water) = 6.68819e-61  Max(alpha.water) = 1
MULES: Correcting alpha.water
MULES: Correcting alpha.water
Phase-1 volume fraction = 0.0166667  Min(alpha.water) = 6.68819e-61  Max(alpha.water) = 1
DICPCG:  Solving for p_rgh, Initial residual = 0.00788937, Final residual = 0.000256713, No Iterations 8
time step continuity errors : sum local = 9.66612e-06, global = -4.09193e-08, cumulative = 4.56429e-05
DICPCG:  Solving for p_rgh, Initial residual = 0.00213753, Final residual = 7.65971e-05, No Iterations 12
time step continuity errors : sum local = 3.33606e-06, global = 4.79391e-07, cumulative = 4.61223e-05
DICPCG:  Solving for p_rgh, Initial residual = 0.000535308, Final residual = 7.49799e-08, No Iterations 35
time step continuity errors : sum local = 2.88593e-09, global = 1.15568e-10, cumulative = 4.61224e-05
ExecutionTime = 0.12 s  ClockTime = 0 s

Courant Number mean: 0.0351036 max: 0.468726
Interface Courant Number mean: 0.00174886 max: 0.448535
deltaT = 0.00714286
Time = 0.0571429

smoothSolver:  Solving for alpha.water, Initial residual = 0.0146302, Final residual = 5.55223e-10, No Iterations 4
Phase-1 volume fraction = 0.0176471  Min(alpha.water) = 3.63521e-59  Max(alpha.water) = 1
MULES: Correcting alpha.water
MULES: Correcting alpha.water
Phase-1 volume fraction = 0.0176471  Min(alpha.water) = 3.63521e-59  Max(alpha.water) = 1
DICPCG:  Solving for p_rgh, Initial residual = 0.00637633, Final residual = 0.000242844, No Iterations 9
time step continuity errors : sum local = 1.16639e-05, global = -1.08488e-07, cumulative = 4.60139e-05
DICPCG:  Solving for p_rgh, Initial residual = 0.00240832, Final residual = 0.000109905, No Iterations 12
time step continuity errors : sum local = 6.85872e-06, global = 1.56254e-06, cumulative = 4.75764e-05
DICPCG:  Solving for p_rgh, Initial residual = 0.000772338, Final residual = 8.02277e-08, No Iterations 36
time step continuity errors : sum local = 4.25709e-09, global = 6.12582e-11, cumulative = 4.75765e-05
ExecutionTime = 0.14 s  ClockTime = 0 s

Courant Number mean: 0.0404329 max: 0.529264
Interface Courant Number mean: 0.00220727 max: 0.501682
deltaT = 0.00714286
Time = 0.0642857

smoothSolver:  Solving for alpha.water, Initial residual = 0.0138225, Final residual = 5.73143e-10, No Iterations 4
Phase-1 volume fraction = 0.0186275  Min(alpha.water) = 3.39341e-58  Max(alpha.water) = 1
MULES: Correcting alpha.water
MULES: Correcting alpha.water
Phase-1 volume fraction = 0.0186275  Min(alpha.water) = -1.41023e-11  Max(alpha.water) = 1
DICPCG:  Solving for p_rgh, Initial residual = 0.00564259, Final residual = 0.000253236, No Iterations 9
time step continuity errors : sum local = 1.33016e-05, global = -2.41091e-07, cumulative = 4.73354e-05
DICPCG:  Solving for p_rgh, Initial residual = 0.00273043, Final residual = 0.000112347, No Iterations 13
time step continuity errors : sum local = 6.00058e-06, global = 1.50116e-06, cumulative = 4.88365e-05
DICPCG:  Solving for p_rgh, Initial residual = 0.000776067, Final residual = 9.6719e-08, No Iterations 37
time step continuity errors : sum local = 4.29389e-09, global = -1.37539e-10, cumulative = 4.88364e-05
ExecutionTime = 0.15 s  ClockTime = 0 s

Courant Number mean: 0.041434 max: 0.531568
Interface Courant Number mean: 0.00220649 max: 0.500623
deltaT = 0.00714286
Time = 0.0714286

smoothSolver:  Solving for alpha.water, Initial residual = 0.0131625, Final residual = 3.64128e-10, No Iterations 4
Phase-1 volume fraction = 0.0196078  Min(alpha.water) = 2.75155e-57  Max(alpha.water) = 1
MULES: Correcting alpha.water
MULES: Correcting alpha.water
Phase-1 volume fraction = 0.0196078  Min(alpha.water) = -2.04626e-11  Max(alpha.water) = 1
DICPCG:  Solving for p_rgh, Initial residual = 0.0199504, Final residual = 0.000948974, No Iterations 5
time step continuity errors : sum local = 4.21587e-05, global = -3.14736e-08, cumulative = 4.88049e-05
DICPCG:  Solving for p_rgh, Initial residual = 0.00421956, Final residual = 0.000175516, No Iterations 12
time step continuity errors : sum local = 7.67792e-06, global = -9.52808e-07, cumulative = 4.78521e-05
DICPCG:  Solving for p_rgh, Initial residual = 0.00126413, Final residual = 9.38166e-08, No Iterations 41
time step continuity errors : sum local = 3.21187e-09, global = 1.13455e-10, cumulative = 4.78522e-05
ExecutionTime = 0.16 s  ClockTime = 0 s

Courant Number mean: 0.0423515 max: 0.50941
Interface Courant Number mean: 0.00220819 max: 0.50941
deltaT = 0.00714286
Time = 0.0785714

smoothSolver:  Solving for alpha.water, Initial residual = 0.0124964, Final residual = 9.62915e-11, No Iterations 4
Phase-1 volume fraction = 0.0205882  Min(alpha.water) = 2.20742e-56  Max(alpha.water) = 1
MULES: Correcting alpha.water
MULES: Correcting alpha.water
Phase-1 volume fraction = 0.0205882  Min(alpha.water) = -5.7844e-12  Max(alpha.water) = 1
DICPCG:  Solving for p_rgh, Initial residual = 0.038027, Final residual = 0.00188492, No Iterations 5
time step continuity errors : sum local = 6.5362e-05, global = -6.47612e-09, cumulative = 4.78458e-05
DICPCG:  Solving for p_rgh, Initial residual = 0.00610456, Final residual = 0.000294953, No Iterations 12
time step continuity errors : sum local = 9.32065e-06, global = -7.94492e-07, cumulative = 4.70513e-05
DICPCG:  Solving for p_rgh, Initial residual = 0.00222302, Final residual = 9.06122e-08, No Iterations 42
time step continuity errors : sum local = 1.74905e-09, global = 3.2313e-11, cumulative = 4.70513e-05
ExecutionTime = 0.17 s  ClockTime = 0 s

Courant Number mean: 0.0435176 max: 0.506919
Interface Courant Number mean: 0.00252619 max: 0.506919
deltaT = 0.00714286
Time = 0.0857143

smoothSolver:  Solving for alpha.water, Initial residual = 0.0119474, Final residual = 3.2566e-09, No Iterations 3
Phase-1 volume fraction = 0.0215686  Min(alpha.water) = 3.99702e-56  Max(alpha.water) = 1
MULES: Correcting alpha.water
MULES: Correcting alpha.water
Phase-1 volume fraction = 0.0215686  Min(alpha.water) = 3.99702e-56  Max(alpha.water) = 1
DICPCG:  Solving for p_rgh, Initial residual = 0.0629309, Final residual = 0.00306423, No Iterations 6
time step continuity errors : sum local = 5.96374e-05, global = -1.78751e-08, cumulative = 4.70334e-05
DICPCG:  Solving for p_rgh, Initial residual = 0.0136519, Final residual = 0.000547305, No Iterations 14
time step continuity errors : sum local = 8.8295e-06, global = 2.5327e-06, cumulative = 4.95661e-05
DICPCG:  Solving for p_rgh, Initial residual = 0.00726509, Final residual = 9.82777e-08, No Iterations 46
time step continuity errors : sum local = 7.28755e-10, global = -5.13777e-12, cumulative = 4.95661e-05
ExecutionTime = 0.18 s  ClockTime = 0 s

Courant Number mean: 0.045552 max: 0.506144
Interface Courant Number mean: 0.00330518 max: 0.506144
deltaT = 0.00714286
Time = 0.0928571

smoothSolver:  Solving for alpha.water, Initial residual = 0.0114193, Final residual = 2.24167e-09, No Iterations 3
Phase-1 volume fraction = 0.022549  Min(alpha.water) = 1.00988e-55  Max(alpha.water) = 1
MULES: Correcting alpha.water
MULES: Correcting alpha.water
Phase-1 volume fraction = 0.022549  Min(alpha.water) = -4.67745e-11  Max(alpha.water) = 1
DICPCG:  Solving for p_rgh, Initial residual = 0.1883, Final residual = 0.00729947, No Iterations 10
time step continuity errors : sum local = 6.48045e-05, global = -2.75771e-06, cumulative = 4.68084e-05
DICPCG:  Solving for p_rgh, Initial residual = 0.0114818, Final residual = 0.000478604, No Iterations 16
time step continuity errors : sum local = 7.97361e-06, global = 6.88596e-07, cumulative = 4.7497e-05
DICPCG:  Solving for p_rgh, Initial residual = 0.00225563, Final residual = 8.73996e-08, No Iterations 42
time step continuity errors : sum local = 1.75524e-09, global = 3.28819e-11, cumulative = 4.7497e-05
ExecutionTime = 0.2 s  ClockTime = 0 s

Courant Number mean: 0.0472816 max: 0.506139
Interface Courant Number mean: 0.00513377 max: 0.506139
deltaT = 0.00714286
Time = 0.1

smoothSolver:  Solving for alpha.water, Initial residual = 0.010993, Final residual = 2.38903e-09, No Iterations 3
Phase-1 volume fraction = 0.0235294  Min(alpha.water) = 4.48574e-55  Max(alpha.water) = 1
MULES: Correcting alpha.water
MULES: Correcting alpha.water
Phase-1 volume fraction = 0.0235294  Min(alpha.water) = -3.58748e-08  Max(alpha.water) = 1
DICPCG:  Solving for p_rgh, Initial residual = 0.0967256, Final residual = 0.00449971, No Iterations 4
time step continuity errors : sum local = 8.94041e-05, global = -1.29625e-08, cumulative = 4.74841e-05
DICPCG:  Solving for p_rgh, Initial residual = 0.00802349, Final residual = 0.000394872, No Iterations 13
time step continuity errors : sum local = 1.0047e-05, global = 1.41306e-06, cumulative = 4.88971e-05
DICPCG:  Solving for p_rgh, Initial residual = 0.0014487, Final residual = 8.87918e-08, No Iterations 41
time step continuity errors : sum local = 2.8049e-09, global = 6.12922e-11, cumulative = 4.88972e-05
ExecutionTime = 0.23 s  ClockTime = 0 s

Courant Number mean: 0.04927 max: 0.506493
Interface Courant Number mean: 0.00465439 max: 0.49334
deltaT = 0.00833333
Time = 0.108333

smoothSolver:  Solving for alpha.water, Initial residual = 0.0122435, Final residual = 6.92393e-09, No Iterations 3
Phase-1 volume fraction = 0.0246732  Min(alpha.water) = 9.11614e-53  Max(alpha.water) = 1
MULES: Correcting alpha.water
MULES: Correcting alpha.water
Phase-1 volume fraction = 0.0246732  Min(alpha.water) = -7.95638e-09  Max(alpha.water) = 1
DICPCG:  Solving for p_rgh, Initial residual = 0.0967358, Final residual = 0.00360077, No Iterations 4
time step continuity errors : sum local = 0.0001598, global = -2.45032e-08, cumulative = 4.88727e-05
DICPCG:  Solving for p_rgh, Initial residual = 0.00569682, Final residual = 0.000184103, No Iterations 14
time step continuity errors : sum local = 1.02421e-05, global = -2.83448e-07, cumulative = 4.85892e-05
DICPCG:  Solving for p_rgh, Initial residual = 0.0012477, Final residual = 9.0761e-08, No Iterations 41
time step continuity errors : sum local = 5.4005e-09, global = 1.13013e-10, cumulative = 4.85894e-05
ExecutionTime = 0.24 s  ClockTime = 0 s

Courant Number mean: 0.0601888 max: 0.601062
Interface Courant Number mean: 0.00725208 max: 0.601062
deltaT = 0.00833333
Time = 0.116667

smoothSolver:  Solving for alpha.water, Initial residual = 0.0117714, Final residual = 7.84917e-09, No Iterations 3
Phase-1 volume fraction = 0.025817  Min(alpha.water) = 1.55847e-51  Max(alpha.water) = 1
MULES: Correcting alpha.water
MULES: Correcting alpha.water
Phase-1 volume fraction = 0.025817  Min(alpha.water) = -1.15697e-08  Max(alpha.water) = 1
DICPCG:  Solving for p_rgh, Initial residual = 0.0687447, Final residual = 0.0030654, No Iterations 4
time step continuity errors : sum local = 0.000183391, global = 1.72096e-08, cumulative = 4.86066e-05
DICPCG:  Solving for p_rgh, Initial residual = 0.00481002, Final residual = 0.000156393, No Iterations 14
time step continuity errors : sum local = 1.12184e-05, global = -3.52574e-06, cumulative = 4.50808e-05
DICPCG:  Solving for p_rgh, Initial residual = 0.00106888, Final residual = 7.8711e-08, No Iterations 33
time step continuity errors : sum local = 5.83742e-09, global = 1.42378e-09, cumulative = 4.50822e-05
ExecutionTime = 0.25 s  ClockTime = 0 s

Courant Number mean: 0.0628953 max: 0.595422
Interface Courant Number mean: 0.00685167 max: 0.595422
deltaT = 0.00833333
Time = 0.125

smoothSolver:  Solving for alpha.water, Initial residual = 0.0112613, Final residual = 8.48642e-09, No Iterations 3
Phase-1 volume fraction = 0.0269608  Min(alpha.water) = 1.54698e-50  Max(alpha.water) = 1
MULES: Correcting alpha.water
MULES: Correcting alpha.water
Phase-1 volume fraction = 0.0269608  Min(alpha.water) = -5.52519e-10  Max(alpha.water) = 1
DICPCG:  Solving for p_rgh, Initial residual = 0.0666174, Final residual = 0.00246485, No Iterations 4
time step continuity errors : sum local = 0.000187969, global = 8.24634e-08, cumulative = 4.51647e-05
DICPCG:  Solving for p_rgh, Initial residual = 0.0036682, Final residual = 0.000142714, No Iterations 14
time step continuity errors : sum local = 1.30204e-05, global = -3.89451e-06, cumulative = 4.12702e-05
DICPCG:  Solving for p_rgh, Initial residual = 0.000843966, Final residual = 9.35612e-08, No Iterations 40
time step continuity errors : sum local = 8.63804e-09, global = 9.69708e-11, cumulative = 4.12703e-05
ExecutionTime = 0.26 s  ClockTime = 0 s

Courant Number mean: 0.0654951 max: 0.592767
Interface Courant Number mean: 0.00799228 max: 0.578247
deltaT = 0.00833333
Time = 0.133333

smoothSolver:  Solving for alpha.water, Initial residual = 0.0108636, Final residual = 8.82443e-09, No Iterations 3
Phase-1 volume fraction = 0.0281046  Min(alpha.water) = 1.28375e-49  Max(alpha.water) = 1
MULES: Correcting alpha.water
MULES: Correcting alpha.water
Phase-1 volume fraction = 0.0281046  Min(alpha.water) = -4.97245e-09  Max(alpha.water) = 1
DICPCG:  Solving for p_rgh, Initial residual = 0.0532447, Final residual = 0.00223213, No Iterations 4
time step continuity errors : sum local = 0.000206204, global = 7.91466e-08, cumulative = 4.13494e-05
DICPCG:  Solving for p_rgh, Initial residual = 0.00331602, Final residual = 0.000125098, No Iterations 9
time step continuity errors : sum local = 1.34457e-05, global = -7.99559e-06, cumulative = 3.33539e-05
DICPCG:  Solving for p_rgh, Initial residual = 0.000720933, Final residual = 8.48561e-08, No Iterations 44
time step continuity errors : sum local = 9.11945e-09, global = 3.77299e-11, cumulative = 3.33539e-05
ExecutionTime = 0.26 s  ClockTime = 0 s

Courant Number mean: 0.06787 max: 0.593074
Interface Courant Number mean: 0.00754054 max: 0.570109
deltaT = 0.00833333
Time = 0.141667

smoothSolver:  Solving for alpha.water, Initial residual = 0.0104413, Final residual = 7.8915e-09, No Iterations 3
Phase-1 volume fraction = 0.0292484  Min(alpha.water) = 9.62971e-49  Max(alpha.water) = 1
MULES: Correcting alpha.water
MULES: Correcting alpha.water
Phase-1 volume fraction = 0.0292484  Min(alpha.water) = -1.45307e-09  Max(alpha.water) = 1
DICPCG:  Solving for p_rgh, Initial residual = 0.051355, Final residual = 0.00183802, No Iterations 4
time step continuity errors : sum local = 0.000203289, global = 1.16427e-07, cumulative = 3.34703e-05
DICPCG:  Solving for p_rgh, Initial residual = 0.00263408, Final residual = 0.000128912, No Iterations 19
time step continuity errors : sum local = 1.65471e-05, global = -2.42923e-06, cumulative = 3.10411e-05
DICPCG:  Solving for p_rgh, Initial residual = 0.000577974, Final residual = 9.51578e-08, No Iterations 43
time step continuity errors : sum local = 1.2222e-08, global = 9.73724e-11, cumulative = 3.10412e-05
ExecutionTime = 0.28 s  ClockTime = 0 s

Courant Number mean: 0.0700457 max: 0.593279
Interface Courant Number mean: 0.00872459 max: 0.562429
deltaT = 0.00833333
Time = 0.15

smoothSolver:  Solving for alpha.water, Initial residual = 0.0101683, Final residual = 6.69706e-09, No Iterations 3
Phase-1 volume fraction = 0.0303922  Min(alpha.water) = 5.97908e-48  Max(alpha.water) = 1
MULES: Correcting alpha.water
MULES: Correcting alpha.water
Phase-1 volume fraction = 0.0303922  Min(alpha.water) = -2.37582e-09  Max(alpha.water) = 1
DICPCG:  Solving for p_rgh, Initial residual = 0.0500864, Final residual = 0.00161631, No Iterations 4
time step continuity errors : sum local = 0.000211657, global = -2.91175e-08, cumulative = 3.10121e-05
DICPCG:  Solving for p_rgh, Initial residual = 0.00249196, Final residual = 0.000117883, No Iterations 9
time step continuity errors : sum local = 1.76127e-05, global = -9.91811e-06, cumulative = 2.1094e-05
DICPCG:  Solving for p_rgh, Initial residual = 0.000531397, Final residual = 9.31662e-08, No Iterations 40
time step continuity errors : sum local = 1.38908e-08, global = 2.13313e-10, cumulative = 2.10942e-05
ExecutionTime = 0.3 s  ClockTime = 0 s

Courant Number mean: 0.0724916 max: 0.5934
Interface Courant Number mean: 0.00805192 max: 0.550482
deltaT = 0.00833333
Time = 0.158333

smoothSolver:  Solving for alpha.water, Initial residual = 0.0102629, Final residual = 7.56652e-09, No Iterations 3
Phase-1 volume fraction = 0.0315359  Min(alpha.water) = 3.45358e-47  Max(alpha.water) = 1
MULES: Correcting alpha.water
MULES: Correcting alpha.water
Phase-1 volume fraction = 0.0315359  Min(alpha.water) = -3.03901e-09  Max(alpha.water) = 1
DICPCG:  Solving for p_rgh, Initial residual = 0.052598, Final residual = 0.00219531, No Iterations 3
time step continuity errors : sum local = 0.000336614, global = 1.37189e-07, cumulative = 2.12314e-05
DICPCG:  Solving for p_rgh, Initial residual = 0.00263938, Final residual = 8.61908e-05, No Iterations 20
time step continuity errors : sum local = 1.5001e-05, global = -2.13139e-06, cumulative = 1.91e-05
DICPCG:  Solving for p_rgh, Initial residual = 0.000417466, Final residual = 8.82872e-08, No Iterations 42
time step continuity errors : sum local = 1.53801e-08, global = 7.47799e-12, cumulative = 1.91e-05
ExecutionTime = 0.32 s  ClockTime = 0 s

Courant Number mean: 0.0745146 max: 0.593449
Interface Courant Number mean: 0.00863676 max: 0.536914
deltaT = 0.00833333
Time = 0.166667

smoothSolver:  Solving for alpha.water, Initial residual = 0.0103897, Final residual = 8.89307e-09, No Iterations 3
Phase-1 volume fraction = 0.0326797  Min(alpha.water) = 1.73227e-46  Max(alpha.water) = 1
MULES: Correcting alpha.water
MULES: Correcting alpha.water
Phase-1 volume fraction = 0.0326797  Min(alpha.water) = -2.31735e-09  Max(alpha.water) = 1
DICPCG:  Solving for p_rgh, Initial residual = 0.0447938, Final residual = 0.00203216, No Iterations 3
time step continuity errors : sum local = 0.000354843, global = -1.71772e-08, cumulative = 1.90828e-05
DICPCG:  Solving for p_rgh, Initial residual = 0.00251665, Final residual = 0.000114181, No Iterations 9
time step continuity errors : sum local = 2.23988e-05, global = -1.2579e-05, cumulative = 6.50377e-06
DICPCG:  Solving for p_rgh, Initial residual = 0.000419542, Final residual = 9.08665e-08, No Iterations 39
time step continuity errors : sum local = 1.78009e-08, global = -5.40751e-10, cumulative = 6.50323e-06
ExecutionTime = 0.32 s  ClockTime = 0 s

Courant Number mean: 0.0765455 max: 0.593456
Interface Courant Number mean: 0.00856418 max: 0.525486
deltaT = 0.00833333
Time = 0.175

smoothSolver:  Solving for alpha.water, Initial residual = 0.0107122, Final residual = 8.81052e-11, No Iterations 4
Phase-1 volume fraction = 0.0338235  Min(alpha.water) = 4.02851e-45  Max(alpha.water) = 1
MULES: Correcting alpha.water
MULES: Correcting alpha.water
Phase-1 volume fraction = 0.0338235  Min(alpha.water) = -1.58027e-09  Max(alpha.water) = 1
DICPCG:  Solving for p_rgh, Initial residual = 0.0501722, Final residual = 0.00198317, No Iterations 3
time step continuity errors : sum local = 0.000394979, global = 1.53471e-07, cumulative = 6.6567e-06
DICPCG:  Solving for p_rgh, Initial residual = 0.0024152, Final residual = 0.000110008, No Iterations 9
time step continuity errors : sum local = 2.45111e-05, global = -1.50734e-05, cumulative = -8.41673e-06
DICPCG:  Solving for p_rgh, Initial residual = 0.000401544, Final residual = 9.60616e-08, No Iterations 38
time step continuity errors : sum local = 2.13775e-08, global = 2.54145e-10, cumulative = -8.41647e-06
ExecutionTime = 0.34 s  ClockTime = 0 s

Courant Number mean: 0.0787346 max: 0.59343
Interface Courant Number mean: 0.00946977 max: 0.517577
deltaT = 0.00833333
Time = 0.183333

smoothSolver:  Solving for alpha.water, Initial residual = 0.0110815, Final residual = 1.06928e-10, No Iterations 4
Phase-1 volume fraction = 0.0349673  Min(alpha.water) = 2.52817e-44  Max(alpha.water) = 1
MULES: Correcting alpha.water
MULES: Correcting alpha.water
Phase-1 volume fraction = 0.0349673  Min(alpha.water) = -8.16042e-10  Max(alpha.water) = 1
DICPCG:  Solving for p_rgh, Initial residual = 0.0484424, Final residual = 0.00167712, No Iterations 3
time step continuity errors : sum local = 0.000382192, global = 1.8474e-07, cumulative = -8.23173e-06
DICPCG:  Solving for p_rgh, Initial residual = 0.00207882, Final residual = 0.000103279, No Iterations 16
time step continuity errors : sum local = 2.62783e-05, global = 1.2337e-06, cumulative = -6.99803e-06
DICPCG:  Solving for p_rgh, Initial residual = 0.00032401, Final residual = 7.98131e-08, No Iterations 40
time step continuity errors : sum local = 2.03269e-08, global = 3.01668e-10, cumulative = -6.99773e-06
ExecutionTime = 0.35 s  ClockTime = 0 s

Courant Number mean: 0.0806897 max: 0.593398
Interface Courant Number mean: 0.0090344 max: 0.514868
deltaT = 0.00833333
Time = 0.191667

smoothSolver:  Solving for alpha.water, Initial residual = 0.0108951, Final residual = 1.12008e-10, No Iterations 4
Phase-1 volume fraction = 0.0361111  Min(alpha.water) = 1.04374e-43  Max(alpha.water) = 1
MULES: Correcting alpha.water
MULES: Correcting alpha.water
Phase-1 volume fraction = 0.0361111  Min(alpha.water) = -3.16714e-10  Max(alpha.water) = 1
DICPCG:  Solving for p_rgh, Initial residual = 0.0456001, Final residual = 0.00183572, No Iterations 3
time step continuity errors : sum local = 0.000463687, global = -1.34468e-07, cumulative = -7.1322e-06
DICPCG:  Solving for p_rgh, Initial residual = 0.00221207, Final residual = 0.000102814, No Iterations 11
time step continuity errors : sum local = 2.85483e-05, global = -7.8418e-06, cumulative = -1.4974e-05
DICPCG:  Solving for p_rgh, Initial residual = 0.000342516, Final residual = 6.91667e-08, No Iterations 38
time step continuity errors : sum local = 1.91851e-08, global = 2.18143e-10, cumulative = -1.49738e-05
ExecutionTime = 0.36 s  ClockTime = 0 s

Courant Number mean: 0.0826426 max: 0.593363
Interface Courant Number mean: 0.0105041 max: 0.538161
deltaT = 0.00833333
Time = 0.2

smoothSolver:  Solving for alpha.water, Initial residual = 0.0119054, Final residual = 1.15738e-10, No Iterations 4
Phase-1 volume fraction = 0.0372549  Min(alpha.water) = 3.75831e-43  Max(alpha.water) = 1
MULES: Correcting alpha.water
MULES: Correcting alpha.water
Phase-1 volume fraction = 0.0372549  Min(alpha.water) = -5.70137e-11  Max(alpha.water) = 1
DICPCG:  Solving for p_rgh, Initial residual = 0.0466149, Final residual = 0.0017229, No Iterations 3
time step continuity errors : sum local = 0.000483212, global = 6.17683e-08, cumulative = -1.4912e-05
DICPCG:  Solving for p_rgh, Initial residual = 0.00205279, Final residual = 0.000102316, No Iterations 10
time step continuity errors : sum local = 3.16237e-05, global = -1.42365e-05, cumulative = -2.91485e-05
DICPCG:  Solving for p_rgh, Initial residual = 0.000336237, Final residual = 9.52238e-08, No Iterations 37
time step continuity errors : sum local = 2.94144e-08, global = -1.1584e-10, cumulative = -2.91486e-05
ExecutionTime = 0.38 s  ClockTime = 0 s

Courant Number mean: 0.084517 max: 0.593335
Interface Courant Number mean: 0.0120045 max: 0.536364
deltaT = 0.00833333
Time = 0.208333

smoothSolver:  Solving for alpha.water, Initial residual = 0.0121293, Final residual = 1.2989e-10, No Iterations 4
Phase-1 volume fraction = 0.0383987  Min(alpha.water) = 1.29766e-42  Max(alpha.water) = 1
MULES: Correcting alpha.water
MULES: Correcting alpha.water
Phase-1 volume fraction = 0.0383987  Min(alpha.water) = -2.86035e-11  Max(alpha.water) = 1
DICPCG:  Solving for p_rgh, Initial residual = 0.0434509, Final residual = 0.00170373, No Iterations 3
time step continuity errors : sum local = 0.000530974, global = 8.95376e-08, cumulative = -2.90591e-05
DICPCG:  Solving for p_rgh, Initial residual = 0.0020197, Final residual = 9.97504e-05, No Iterations 10
time step continuity errors : sum local = 3.422e-05, global = -1.79321e-05, cumulative = -4.69912e-05
DICPCG:  Solving for p_rgh, Initial residual = 0.000306611, Final residual = 8.57543e-08, No Iterations 36
time step continuity errors : sum local = 2.94024e-08, global = -2.47331e-10, cumulative = -4.69914e-05
ExecutionTime = 0.39 s  ClockTime = 0 s

Courant Number mean: 0.0861871 max: 0.593318
Interface Courant Number mean: 0.0109514 max: 0.521312
deltaT = 0.00833333
Time = 0.216667

smoothSolver:  Solving for alpha.water, Initial residual = 0.0119355, Final residual = 1.64961e-10, No Iterations 4
Phase-1 volume fraction = 0.0395425  Min(alpha.water) = 4.19285e-42  Max(alpha.water) = 1
MULES: Correcting alpha.water
MULES: Correcting alpha.water
Phase-1 volume fraction = 0.0395425  Min(alpha.water) = -5.19528e-07  Max(alpha.water) = 1
DICPCG:  Solving for p_rgh, Initial residual = 0.0451481, Final residual = 0.00188565, No Iterations 3
time step continuity errors : sum local = 0.000644454, global = 1.3092e-07, cumulative = -4.68605e-05
DICPCG:  Solving for p_rgh, Initial residual = 0.00217664, Final residual = 8.92767e-05, No Iterations 12
time step continuity errors : sum local = 3.33774e-05, global = -9.27554e-06, cumulative = -5.6136e-05
DICPCG:  Solving for p_rgh, Initial residual = 0.000285506, Final residual = 7.52653e-08, No Iterations 37
time step continuity errors : sum local = 2.81278e-08, global = -4.51546e-10, cumulative = -5.61365e-05
ExecutionTime = 0.4 s  ClockTime = 0 s

Courant Number mean: 0.0878982 max: 0.593309
Interface Courant Number mean: 0.0114902 max: 0.509623
deltaT = 0.00833333
Time = 0.225

smoothSolver:  Solving for alpha.water, Initial residual = 0.0129296, Final residual = 2.15981e-10, No Iterations 4
Phase-1 volume fraction = 0.0406863  Min(alpha.water) = 1.25849e-41  Max(alpha.water) = 1
MULES: Correcting alpha.water
MULES: Correcting alpha.water
Phase-1 volume fraction = 0.0406863  Min(alpha.water) = -2.60201e-07  Max(alpha.water) = 1
DICPCG:  Solving for p_rgh, Initial residual = 0.0422228, Final residual = 0.00190963, No Iterations 3
time step continuity errors : sum local = 0.000712012, global = -1.99727e-07, cumulative = -5.63362e-05
DICPCG:  Solving for p_rgh, Initial residual = 0.00212978, Final residual = 0.000104141, No Iterations 11
time step continuity errors : sum local = 4.23618e-05, global = -1.18172e-05, cumulative = -6.81535e-05
DICPCG:  Solving for p_rgh, Initial residual = 0.000286558, Final residual = 7.70868e-08, No Iterations 37
time step continuity errors : sum local = 3.13508e-08, global = -1.75198e-10, cumulative = -6.81536e-05
ExecutionTime = 0.41 s  ClockTime = 0 s

Courant Number mean: 0.0894772 max: 0.593307
Interface Courant Number mean: 0.0126532 max: 0.503574
deltaT = 0.00833333
Time = 0.233333

smoothSolver:  Solving for alpha.water, Initial residual = 0.0130995, Final residual = 2.66871e-10, No Iterations 4
Phase-1 volume fraction = 0.0418301  Min(alpha.water) = 3.68208e-41  Max(alpha.water) = 1
MULES: Correcting alpha.water
MULES: Correcting alpha.water
Phase-1 volume fraction = 0.0418301  Min(alpha.water) = -4.14305e-08  Max(alpha.water) = 1
DICPCG:  Solving for p_rgh, Initial residual = 0.0406032, Final residual = 0.00142756, No Iterations 4
time step continuity errors : sum local = 0.000583583, global = -2.73465e-06, cumulative = -7.08883e-05
DICPCG:  Solving for p_rgh, Initial residual = 0.00166807, Final residual = 7.2952e-05, No Iterations 13
time step continuity errors : sum local = 3.25298e-05, global = -1.27602e-05, cumulative = -8.36485e-05
DICPCG:  Solving for p_rgh, Initial residual = 0.00020885, Final residual = 8.63846e-08, No Iterations 35
time step continuity errors : sum local = 3.85031e-08, global = 1.34626e-09, cumulative = -8.36471e-05
ExecutionTime = 0.42 s  ClockTime = 0 s

Courant Number mean: 0.0908314 max: 0.593309
Interface Courant Number mean: 0.0118167 max: 0.501329
deltaT = 0.00833333
Time = 0.241667

smoothSolver:  Solving for alpha.water, Initial residual = 0.0125229, Final residual = 3.50827e-10, No Iterations 4
Phase-1 volume fraction = 0.0429738  Min(alpha.water) = 1.049e-40  Max(alpha.water) = 1
MULES: Correcting alpha.water
MULES: Correcting alpha.water
Phase-1 volume fraction = 0.0429738  Min(alpha.water) = -6.27469e-06  Max(alpha.water) = 1
DICPCG:  Solving for p_rgh, Initial residual = 0.0478504, Final residual = 0.00209797, No Iterations 4
time step continuity errors : sum local = 0.000942569, global = -6.25872e-06, cumulative = -8.99058e-05
DICPCG:  Solving for p_rgh, Initial residual = 0.00221559, Final residual = 0.000103852, No Iterations 12
time step continuity errors : sum local = 5.09802e-05, global = -1.93562e-05, cumulative = -0.000109262
DICPCG:  Solving for p_rgh, Initial residual = 0.000251045, Final residual = 6.2208e-08, No Iterations 36
time step continuity errors : sum local = 3.05229e-08, global = 1.45134e-09, cumulative = -0.000109261
ExecutionTime = 0.43 s  ClockTime = 0 s

Courant Number mean: 0.0919989 max: 0.593312
Interface Courant Number mean: 0.0124781 max: 0.49899
deltaT = 0.00833333
Time = 0.25

smoothSolver:  Solving for alpha.water, Initial residual = 0.013142, Final residual = 4.44738e-10, No Iterations 4
Phase-1 volume fraction = 0.0441176  Min(alpha.water) = -5.12745e-09  Max(alpha.water) = 1
MULES: Correcting alpha.water
MULES: Correcting alpha.water
Phase-1 volume fraction = 0.0441176  Min(alpha.water) = -2.91809e-05  Max(alpha.water) = 1
DICPCG:  Solving for p_rgh, Initial residual = 0.0421315, Final residual = 0.00160106, No Iterations 6
time step continuity errors : sum local = 0.000774849, global = -6.19804e-05, cumulative = -0.000171241
DICPCG:  Solving for p_rgh, Initial residual = 0.00175327, Final residual = 6.78887e-05, No Iterations 12
time step continuity errors : sum local = 3.55103e-05, global = -1.66398e-05, cumulative = -0.000187881
DICPCG:  Solving for p_rgh, Initial residual = 0.000171689, Final residual = 8.92888e-08, No Iterations 33
time step continuity errors : sum local = 4.66983e-08, global = -6.20675e-10, cumulative = -0.000187881
ExecutionTime = 0.45 s  ClockTime = 0 s

Courant Number mean: 0.0932296 max: 0.593313
Interface Courant Number mean: 0.0127531 max: 0.496959
deltaT = 0.00833333
Time = 0.258333

smoothSolver:  Solving for alpha.water, Initial residual = 0.0134934, Final residual = 5.43955e-10, No Iterations 4
Phase-1 volume fraction = 0.0452614  Min(alpha.water) = 8.87856e-40  Max(alpha.water) = 1
MULES: Correcting alpha.water
MULES: Correcting alpha.water
Phase-1 volume fraction = 0.0452614  Min(alpha.water) = -8.60542e-06  Max(alpha.water) = 1
DICPCG:  Solving for p_rgh, Initial residual = 0.0442884, Final residual = 0.00182714, No Iterations 6
time step continuity errors : sum local = 0.000969061, global = -8.7807e-05, cumulative = -0.000275688
DICPCG:  Solving for p_rgh, Initial residual = 0.00191807, Final residual = 8.7594e-05, No Iterations 12
time step continuity errors : sum local = 5.05257e-05, global = -2.41511e-05, cumulative = -0.000299839
DICPCG:  Solving for p_rgh, Initial residual = 0.000174937, Final residual = 9.81737e-08, No Iterations 33
time step continuity errors : sum local = 5.66338e-08, global = 1.36641e-09, cumulative = -0.000299838
ExecutionTime = 0.46 s  ClockTime = 0 s

Courant Number mean: 0.0943808 max: 0.593313
Interface Courant Number mean: 0.0128089 max: 0.49552
deltaT = 0.00833333
Time = 0.266667

smoothSolver:  Solving for alpha.water, Initial residual = 0.0131839, Final residual = 6.4811e-10, No Iterations 4
Phase-1 volume fraction = 0.0464052  Min(alpha.water) = 2.56976e-39  Max(alpha.water) = 1
MULES: Correcting alpha.water
MULES: Correcting alpha.water
Phase-1 volume fraction = 0.0464052  Min(alpha.water) = -2.69401e-05  Max(alpha.water) = 1
DICPCG:  Solving for p_rgh, Initial residual = 0.0465591, Final residual = 0.00217473, No Iterations 5
time step continuity errors : sum local = 0.00125019, global = -4.39785e-05, cumulative = -0.000343817
DICPCG:  Solving for p_rgh, Initial residual = 0.00220526, Final residual = 0.000103615, No Iterations 11
time step continuity errors : sum local = 6.44799e-05, global = -2.35293e-05, cumulative = -0.000367346
DICPCG:  Solving for p_rgh, Initial residual = 0.000203479, Final residual = 9.05955e-08, No Iterations 34
time step continuity errors : sum local = 5.6352e-08, global = 2.68938e-09, cumulative = -0.000367343
ExecutionTime = 0.47 s  ClockTime = 0 s

Courant Number mean: 0.0954334 max: 0.593311
Interface Courant Number mean: 0.0129641 max: 0.494928
deltaT = 0.00833333
Time = 0.275

smoothSolver:  Solving for alpha.water, Initial residual = 0.0126472, Final residual = 7.54801e-10, No Iterations 4
Phase-1 volume fraction = 0.047549  Min(alpha.water) = 7.77745e-39  Max(alpha.water) = 1
MULES: Correcting alpha.water
MULES: Correcting alpha.water
Phase-1 volume fraction = 0.047549  Min(alpha.water) = -0.000425296  Max(alpha.water) = 1
DICPCG:  Solving for p_rgh, Initial residual = 0.0449692, Final residual = 0.00221955, No Iterations 4
time step continuity errors : sum local = 0.00136035, global = -1.64042e-05, cumulative = -0.000383747
DICPCG:  Solving for p_rgh, Initial residual = 0.00226073, Final residual = 0.000107244, No Iterations 11
time step continuity errors : sum local = 7.08313e-05, global = -1.95042e-05, cumulative = -0.000403251
DICPCG:  Solving for p_rgh, Initial residual = 0.000222308, Final residual = 7.22041e-08, No Iterations 35
time step continuity errors : sum local = 4.76675e-08, global = 1.50998e-09, cumulative = -0.00040325
ExecutionTime = 0.49 s  ClockTime = 0 s

Courant Number mean: 0.0965304 max: 0.593307
Interface Courant Number mean: 0.013485 max: 0.500283
deltaT = 0.00833333
Time = 0.283333

smoothSolver:  Solving for alpha.water, Initial residual = 0.0130203, Final residual = 8.87138e-10, No Iterations 4
Phase-1 volume fraction = 0.0486928  Min(alpha.water) = 2.49811e-38  Max(alpha.water) = 1
MULES: Correcting alpha.water
MULES: Correcting alpha.water
Phase-1 volume fraction = 0.0486928  Min(alpha.water) = -0.000383546  Max(alpha.water) = 1
DICPCG:  Solving for p_rgh, Initial residual = 0.0439517, Final residual = 0.00206668, No Iterations 3
time step continuity errors : sum local = 0.00133143, global = -4.04504e-06, cumulative = -0.000407295
DICPCG:  Solving for p_rgh, Initial residual = 0.00211089, Final residual = 8.51404e-05, No Iterations 11
time step continuity errors : sum local = 5.8718e-05, global = -7.10839e-06, cumulative = -0.000414403
DICPCG:  Solving for p_rgh, Initial residual = 0.000236588, Final residual = 9.11725e-08, No Iterations 35
time step continuity errors : sum local = 6.29451e-08, global = 3.78213e-09, cumulative = -0.0004144
ExecutionTime = 0.49 s  ClockTime = 0 s

Courant Number mean: 0.0978513 max: 0.593304
Interface Courant Number mean: 0.0137989 max: 0.496159
deltaT = 0.00833333
Time = 0.291667

smoothSolver:  Solving for alpha.water, Initial residual = 0.0133644, Final residual = 1.03566e-09, No Iterations 4
Phase-1 volume fraction = 0.0498366  Min(alpha.water) = 8.10426e-38  Max(alpha.water) = 1
MULES: Correcting alpha.water
MULES: Correcting alpha.water
Phase-1 volume fraction = 0.0498366  Min(alpha.water) = -0.000202031  Max(alpha.water) = 1
DICPCG:  Solving for p_rgh, Initial residual = 0.0432935, Final residual = 0.00162011, No Iterations 3
time step continuity errors : sum local = 0.00111902, global = -4.8026e-06, cumulative = -0.000419202
DICPCG:  Solving for p_rgh, Initial residual = 0.00165188, Final residual = 8.17906e-05, No Iterations 10
time step continuity errors : sum local = 6.07162e-05, global = -1.0136e-05, cumulative = -0.000429338
DICPCG:  Solving for p_rgh, Initial residual = 0.000197, Final residual = 7.86988e-08, No Iterations 35
time step continuity errors : sum local = 5.84949e-08, global = 2.43345e-09, cumulative = -0.000429336
ExecutionTime = 0.5 s  ClockTime = 0 s

Courant Number mean: 0.0990946 max: 0.5933
Interface Courant Number mean: 0.014472 max: 0.497614
deltaT = 0.00833333
Time = 0.3

smoothSolver:  Solving for alpha.water, Initial residual = 0.0133666, Final residual = 1.18374e-09, No Iterations 4
Phase-1 volume fraction = 0.0509804  Min(alpha.water) = 2.60664e-37  Max(alpha.water) = 1
MULES: Correcting alpha.water
MULES: Correcting alpha.water
Phase-1 volume fraction = 0.0509804  Min(alpha.water) = -0.000288203  Max(alpha.water) = 1
DICPCG:  Solving for p_rgh, Initial residual = 0.0487069, Final residual = 0.0014307, No Iterations 3
time step continuity errors : sum local = 0.00106147, global = -5.57809e-06, cumulative = -0.000434914
DICPCG:  Solving for p_rgh, Initial residual = 0.00145458, Final residual = 7.262e-05, No Iterations 10
time step continuity errors : sum local = 5.81534e-05, global = -1.44889e-05, cumulative = -0.000449403
DICPCG:  Solving for p_rgh, Initial residual = 0.000170308, Final residual = 9.08202e-08, No Iterations 34
time step continuity errors : sum local = 7.28286e-08, global = 1.01937e-09, cumulative = -0.000449402
ExecutionTime = 0.52 s  ClockTime = 0 s

Courant Number mean: 0.100191 max: 0.593297
Interface Courant Number mean: 0.0139476 max: 0.499141
deltaT = 0.00833333
Time = 0.308333

smoothSolver:  Solving for alpha.water, Initial residual = 0.0128409, Final residual = 1.39915e-09, No Iterations 4
Phase-1 volume fraction = 0.0521242  Min(alpha.water) = 8.44234e-37  Max(alpha.water) = 1
MULES: Correcting alpha.water
MULES: Correcting alpha.water
Phase-1 volume fraction = 0.0521242  Min(alpha.water) = -0.000486031  Max(alpha.water) = 1
DICPCG:  Solving for p_rgh, Initial residual = 0.0504518, Final residual = 0.00222738, No Iterations 2
time step continuity errors : sum local = 0.00178417, global = -1.3008e-06, cumulative = -0.000450703
DICPCG:  Solving for p_rgh, Initial residual = 0.00221461, Final residual = 9.89157e-05, No Iterations 9
time step continuity errors : sum local = 8.52186e-05, global = -2.92239e-05, cumulative = -0.000479927
DICPCG:  Solving for p_rgh, Initial residual = 0.000261959, Final residual = 8.88623e-08, No Iterations 35
time step continuity errors : sum local = 7.69012e-08, global = 1.67277e-09, cumulative = -0.000479925
ExecutionTime = 0.54 s  ClockTime = 0 s

Courant Number mean: 0.101082 max: 0.593295
Interface Courant Number mean: 0.0138777 max: 0.500447
deltaT = 0.00833333
Time = 0.316667

smoothSolver:  Solving for alpha.water, Initial residual = 0.0130855, Final residual = 1.64527e-09, No Iterations 4
Phase-1 volume fraction = 0.053268  Min(alpha.water) = 2.93776e-36  Max(alpha.water) = 1
MULES: Correcting alpha.water
MULES: Correcting alpha.water
Phase-1 volume fraction = 0.053268  Min(alpha.water) = -0.00126181  Max(alpha.water) = 1
DICPCG:  Solving for p_rgh, Initial residual = 0.05677, Final residual = 0.00206712, No Iterations 2
time step continuity errors : sum local = 0.00178131, global = -1.26807e-06, cumulative = -0.000481193
DICPCG:  Solving for p_rgh, Initial residual = 0.0020429, Final residual = 9.62666e-05, No Iterations 9
time step continuity errors : sum local = 8.93353e-05, global = -2.68049e-05, cumulative = -0.000507998
DICPCG:  Solving for p_rgh, Initial residual = 0.000236004, Final residual = 9.39009e-08, No Iterations 35
time step continuity errors : sum local = 8.74158e-08, global = 4.26576e-10, cumulative = -0.000507997
ExecutionTime = 0.55 s  ClockTime = 1 s

Courant Number mean: 0.101898 max: 0.593294
Interface Courant Number mean: 0.013801 max: 0.501409
deltaT = 0.00833333
Time = 0.325

smoothSolver:  Solving for alpha.water, Initial residual = 0.0135516, Final residual = 1.8389e-09, No Iterations 4
Phase-1 volume fraction = 0.0544118  Min(alpha.water) = 1.10202e-35  Max(alpha.water) = 1
MULES: Correcting alpha.water
MULES: Correcting alpha.water
Phase-1 volume fraction = 0.0544118  Min(alpha.water) = -0.000977254  Max(alpha.water) = 1
DICPCG:  Solving for p_rgh, Initial residual = 0.0530806, Final residual = 0.00195257, No Iterations 2
time step continuity errors : sum local = 0.00178724, global = -1.64117e-06, cumulative = -0.000509639
DICPCG:  Solving for p_rgh, Initial residual = 0.00191992, Final residual = 9.13562e-05, No Iterations 9
time step continuity errors : sum local = 8.99232e-05, global = -2.26248e-05, cumulative = -0.000532263
DICPCG:  Solving for p_rgh, Initial residual = 0.000217678, Final residual = 9.89196e-08, No Iterations 35
time step continuity errors : sum local = 9.75927e-08, global = 1.23921e-10, cumulative = -0.000532263
ExecutionTime = 0.56 s  ClockTime = 1 s

Courant Number mean: 0.102565 max: 0.593293
Interface Courant Number mean: 0.0145422 max: 0.501956
deltaT = 0.00833333
Time = 0.333333

smoothSolver:  Solving for alpha.water, Initial residual = 0.0137438, Final residual = 1.9796e-09, No Iterations 4
Phase-1 volume fraction = 0.0555555  Min(alpha.water) = 4.41726e-35  Max(alpha.water) = 1
MULES: Correcting alpha.water
MULES: Correcting alpha.water
Phase-1 volume fraction = 0.0555555  Min(alpha.water) = -0.000628199  Max(alpha.water) = 1
DICPCG:  Solving for p_rgh, Initial residual = 0.0476419, Final residual = 0.00194843, No Iterations 2
time step continuity errors : sum local = 0.00185234, global = -2.52011e-06, cumulative = -0.000534783
DICPCG:  Solving for p_rgh, Initial residual = 0.00192776, Final residual = 9.54599e-05, No Iterations 9
time step continuity errors : sum local = 9.66198e-05, global = -1.5789e-05, cumulative = -0.000550572
DICPCG:  Solving for p_rgh, Initial residual = 0.000210142, Final residual = 9.94179e-08, No Iterations 35
time step continuity errors : sum local = 1.00828e-07, global = -2.08954e-10, cumulative = -0.000550573
ExecutionTime = 0.57 s  ClockTime = 1 s

Courant Number mean: 0.103127 max: 0.593294
Interface Courant Number mean: 0.0157504 max: 0.502068
deltaT = 0.00833333
Time = 0.341667

smoothSolver:  Solving for alpha.water, Initial residual = 0.013669, Final residual = 2.05264e-09, No Iterations 4
Phase-1 volume fraction = 0.0566993  Min(alpha.water) = 1.82586e-34  Max(alpha.water) = 1
MULES: Correcting alpha.water
MULES: Correcting alpha.water
Phase-1 volume fraction = 0.0566993  Min(alpha.water) = -0.000574989  Max(alpha.water) = 1
DICPCG:  Solving for p_rgh, Initial residual = 0.0495408, Final residual = 0.00186933, No Iterations 2
time step continuity errors : sum local = 0.00187881, global = -3.22982e-06, cumulative = -0.000553802
DICPCG:  Solving for p_rgh, Initial residual = 0.00184938, Final residual = 7.35464e-05, No Iterations 10
time step continuity errors : sum local = 7.92361e-05, global = -5.65187e-06, cumulative = -0.000559454
DICPCG:  Solving for p_rgh, Initial residual = 0.000175844, Final residual = 9.89743e-08, No Iterations 35
time step continuity errors : sum local = 1.06805e-07, global = -3.82613e-10, cumulative = -0.000559455
ExecutionTime = 0.58 s  ClockTime = 1 s

Courant Number mean: 0.103761 max: 0.593294
Interface Courant Number mean: 0.015076 max: 0.501809
deltaT = 0.00833333
Time = 0.35

smoothSolver:  Solving for alpha.water, Initial residual = 0.0131884, Final residual = 2.00191e-09, No Iterations 4
Phase-1 volume fraction = 0.0578431  Min(alpha.water) = 7.30933e-34  Max(alpha.water) = 1
MULES: Correcting alpha.water
MULES: Correcting alpha.water
Phase-1 volume fraction = 0.0578431  Min(alpha.water) = -0.000824728  Max(alpha.water) = 1
DICPCG:  Solving for p_rgh, Initial residual = 0.0530714, Final residual = 0.00180182, No Iterations 2
time step continuity errors : sum local = 0.00194827, global = -3.98324e-06, cumulative = -0.000563438
DICPCG:  Solving for p_rgh, Initial residual = 0.00177711, Final residual = 8.75496e-05, No Iterations 9
time step continuity errors : sum local = 0.000101718, global = -1.25684e-05, cumulative = -0.000576006
DICPCG:  Solving for p_rgh, Initial residual = 0.000185949, Final residual = 8.51043e-08, No Iterations 38
time step continuity errors : sum local = 9.90161e-08, global = -4.77001e-10, cumulative = -0.000576007
ExecutionTime = 0.6 s  ClockTime = 1 s

Courant Number mean: 0.104363 max: 0.593295
Interface Courant Number mean: 0.0155334 max: 0.501273
deltaT = 0.00833333
Time = 0.358333

smoothSolver:  Solving for alpha.water, Initial residual = 0.0129777, Final residual = 1.8568e-09, No Iterations 4
Phase-1 volume fraction = 0.0589869  Min(alpha.water) = 2.78343e-33  Max(alpha.water) = 1
MULES: Correcting alpha.water
MULES: Correcting alpha.water
Phase-1 volume fraction = 0.0589869  Min(alpha.water) = -0.000824043  Max(alpha.water) = 1
DICPCG:  Solving for p_rgh, Initial residual = 0.0577747, Final residual = 0.00169452, No Iterations 2
time step continuity errors : sum local = 0.00199344, global = -4.22542e-06, cumulative = -0.000580232
DICPCG:  Solving for p_rgh, Initial residual = 0.00166379, Final residual = 8.09479e-05, No Iterations 9
time step continuity errors : sum local = 0.0001027, global = -1.93753e-05, cumulative = -0.000599608
DICPCG:  Solving for p_rgh, Initial residual = 0.000173812, Final residual = 9.3896e-08, No Iterations 38
time step continuity errors : sum local = 1.19254e-07, global = 1.24025e-09, cumulative = -0.000599606
ExecutionTime = 0.61 s  ClockTime = 1 s

Courant Number mean: 0.104959 max: 0.593295
Interface Courant Number mean: 0.0147771 max: 0.500569
deltaT = 0.00833333
Time = 0.366667

smoothSolver:  Solving for alpha.water, Initial residual = 0.0130667, Final residual = 1.61693e-09, No Iterations 4
Phase-1 volume fraction = 0.0601307  Min(alpha.water) = 1.05329e-32  Max(alpha.water) = 1
MULES: Correcting alpha.water
MULES: Correcting alpha.water
Phase-1 volume fraction = 0.0601307  Min(alpha.water) = -0.00127592  Max(alpha.water) = 1
DICPCG:  Solving for p_rgh, Initial residual = 0.0588281, Final residual = 0.00167282, No Iterations 2
time step continuity errors : sum local = 0.00213002, global = -4.67988e-06, cumulative = -0.000604286
DICPCG:  Solving for p_rgh, Initial residual = 0.00165013, Final residual = 8.01862e-05, No Iterations 9
time step continuity errors : sum local = 0.000109945, global = -2.73569e-05, cumulative = -0.000631643
DICPCG:  Solving for p_rgh, Initial residual = 0.000170861, Final residual = 8.67593e-08, No Iterations 39
time step continuity errors : sum local = 1.19063e-07, global = 6.16361e-10, cumulative = -0.000631642
ExecutionTime = 0.62 s  ClockTime = 1 s

Courant Number mean: 0.105428 max: 0.593296
Interface Courant Number mean: 0.0147476 max: 0.499799
deltaT = 0.00833333
Time = 0.375

smoothSolver:  Solving for alpha.water, Initial residual = 0.0129611, Final residual = 1.33378e-09, No Iterations 4
Phase-1 volume fraction = 0.0612745  Min(alpha.water) = 2.71742e-32  Max(alpha.water) = 1
MULES: Correcting alpha.water
MULES: Correcting alpha.water
Phase-1 volume fraction = 0.0612745  Min(alpha.water) = -0.00106549  Max(alpha.water) = 1
DICPCG:  Solving for p_rgh, Initial residual = 0.0511782, Final residual = 0.00179631, No Iterations 2
time step continuity errors : sum local = 0.00233111, global = -4.37652e-06, cumulative = -0.000636019
DICPCG:  Solving for p_rgh, Initial residual = 0.00178669, Final residual = 8.50115e-05, No Iterations 9
time step continuity errors : sum local = 0.000117911, global = -2.56829e-05, cumulative = -0.000661702
DICPCG:  Solving for p_rgh, Initial residual = 0.000193701, Final residual = 8.89712e-08, No Iterations 40
time step continuity errors : sum local = 1.23554e-07, global = -2.27239e-09, cumulative = -0.000661704
ExecutionTime = 0.63 s  ClockTime = 1 s

Courant Number mean: 0.106065 max: 0.593297
Interface Courant Number mean: 0.0156119 max: 0.499097
deltaT = 0.00833333
Time = 0.383333

smoothSolver:  Solving for alpha.water, Initial residual = 0.0127577, Final residual = 1.12671e-09, No Iterations 4
Phase-1 volume fraction = 0.0624183  Min(alpha.water) = 2.73694e-32  Max(alpha.water) = 1
MULES: Correcting alpha.water
MULES: Correcting alpha.water
Phase-1 volume fraction = 0.0624183  Min(alpha.water) = -0.000830973  Max(alpha.water) = 1
DICPCG:  Solving for p_rgh, Initial residual = 0.0471164, Final residual = 0.00193905, No Iterations 2
time step continuity errors : sum local = 0.00254872, global = -6.0795e-06, cumulative = -0.000667784
DICPCG:  Solving for p_rgh, Initial residual = 0.00197875, Final residual = 9.21653e-05, No Iterations 9
time step continuity errors : sum local = 0.000128704, global = -2.04805e-05, cumulative = -0.000688264
DICPCG:  Solving for p_rgh, Initial residual = 0.000220176, Final residual = 7.9227e-08, No Iterations 41
time step continuity errors : sum local = 1.10737e-07, global = -1.24285e-09, cumulative = -0.000688265
ExecutionTime = 0.64 s  ClockTime = 1 s

Courant Number mean: 0.106759 max: 0.593298
Interface Courant Number mean: 0.015616 max: 0.498547
deltaT = 0.00833333
Time = 0.391667

smoothSolver:  Solving for alpha.water, Initial residual = 0.0124807, Final residual = 9.53904e-10, No Iterations 4
Phase-1 volume fraction = 0.0635621  Min(alpha.water) = 2.76443e-32  Max(alpha.water) = 1
MULES: Correcting alpha.water
MULES: Correcting alpha.water
Phase-1 volume fraction = 0.0635621  Min(alpha.water) = -0.000659837  Max(alpha.water) = 1.00007
DICPCG:  Solving for p_rgh, Initial residual = 0.0488259, Final residual = 0.00207157, No Iterations 2
time step continuity errors : sum local = 0.00286423, global = -7.76263e-06, cumulative = -0.000696028
DICPCG:  Solving for p_rgh, Initial residual = 0.00212346, Final residual = 9.54422e-05, No Iterations 9
time step continuity errors : sum local = 0.000140558, global = -2.5486e-05, cumulative = -0.000721514
DICPCG:  Solving for p_rgh, Initial residual = 0.000242867, Final residual = 8.46042e-08, No Iterations 41
time step continuity errors : sum local = 1.24702e-07, global = -2.59695e-09, cumulative = -0.000721516
ExecutionTime = 0.65 s  ClockTime = 1 s

Courant Number mean: 0.107384 max: 0.593298
Interface Courant Number mean: 0.0158078 max: 0.498213
deltaT = 0.00833333
Time = 0.4

smoothSolver:  Solving for alpha.water, Initial residual = 0.0122849, Final residual = 8.12229e-10, No Iterations 4
Phase-1 volume fraction = 0.0647059  Min(alpha.water) = 2.79984e-32  Max(alpha.water) = 1
MULES: Correcting alpha.water
MULES: Correcting alpha.water
Phase-1 volume fraction = 0.0647059  Min(alpha.water) = -0.000304154  Max(alpha.water) = 1.00007
DICPCG:  Solving for p_rgh, Initial residual = 0.0475025, Final residual = 0.00155526, No Iterations 2
time step continuity errors : sum local = 0.00219947, global = -8.52648e-06, cumulative = -0.000730043
DICPCG:  Solving for p_rgh, Initial residual = 0.0015753, Final residual = 5.73147e-05, No Iterations 10
time step continuity errors : sum local = 8.62547e-05, global = -4.86443e-06, cumulative = -0.000734907
DICPCG:  Solving for p_rgh, Initial residual = 0.000164293, Final residual = 8.44272e-08, No Iterations 38
time step continuity errors : sum local = 1.27098e-07, global = 1.17152e-08, cumulative = -0.000734896
ExecutionTime = 0.67 s  ClockTime = 1 s

Courant Number mean: 0.10846 max: 0.593297
Interface Courant Number mean: 0.017124 max: 0.498117
deltaT = 0.00833333
Time = 0.408333

smoothSolver:  Solving for alpha.water, Initial residual = 0.0121244, Final residual = 7.24129e-10, No Iterations 4
Phase-1 volume fraction = 0.0658497  Min(alpha.water) = 2.85062e-32  Max(alpha.water) = 1
MULES: Correcting alpha.water
MULES: Correcting alpha.water
Phase-1 volume fraction = 0.0658497  Min(alpha.water) = -9.70777e-05  Max(alpha.water) = 1.00001
DICPCG:  Solving for p_rgh, Initial residual = 0.0469666, Final residual = 0.0014229, No Iterations 2
time step continuity errors : sum local = 0.00212304, global = -9.18134e-06, cumulative = -0.000744077
DICPCG:  Solving for p_rgh, Initial residual = 0.00143431, Final residual = 6.55745e-05, No Iterations 9
time step continuity errors : sum local = 0.000104197, global = -3.76805e-05, cumulative = -0.000781758
DICPCG:  Solving for p_rgh, Initial residual = 0.000160332, Final residual = 9.24068e-08, No Iterations 38
time step continuity errors : sum local = 1.46877e-07, global = 8.54378e-10, cumulative = -0.000781757
ExecutionTime = 0.68 s  ClockTime = 1 s

Courant Number mean: 0.109193 max: 0.593297
Interface Courant Number mean: 0.0174251 max: 0.498244
deltaT = 0.00833333
Time = 0.416667

smoothSolver:  Solving for alpha.water, Initial residual = 0.0117984, Final residual = 6.61878e-10, No Iterations 4
Phase-1 volume fraction = 0.0669935  Min(alpha.water) = -8.107e-08  Max(alpha.water) = 1
MULES: Correcting alpha.water
MULES: Correcting alpha.water
Phase-1 volume fraction = 0.0669935  Min(alpha.water) = -0.000973351  Max(alpha.water) = 1.00001
DICPCG:  Solving for p_rgh, Initial residual = 0.0515732, Final residual = 0.00146633, No Iterations 2
time step continuity errors : sum local = 0.00233676, global = -1.09681e-05, cumulative = -0.000792725
DICPCG:  Solving for p_rgh, Initial residual = 0.00144185, Final residual = 6.7362e-05, No Iterations 9
time step continuity errors : sum local = 0.000114687, global = -2.19848e-05, cumulative = -0.00081471
DICPCG:  Solving for p_rgh, Initial residual = 0.000146893, Final residual = 8.78265e-08, No Iterations 38
time step continuity errors : sum local = 1.49518e-07, global = 1.28696e-09, cumulative = -0.000814708
ExecutionTime = 0.69 s  ClockTime = 1 s

Courant Number mean: 0.110057 max: 0.593296
Interface Courant Number mean: 0.0175797 max: 0.498534
deltaT = 0.00833333
Time = 0.425

smoothSolver:  Solving for alpha.water, Initial residual = 0.0121691, Final residual = 5.93961e-10, No Iterations 4
Phase-1 volume fraction = 0.0681372  Min(alpha.water) = -6.95545e-08  Max(alpha.water) = 1
MULES: Correcting alpha.water
MULES: Correcting alpha.water
Phase-1 volume fraction = 0.0681372  Min(alpha.water) = -0.000952564  Max(alpha.water) = 1.00002
DICPCG:  Solving for p_rgh, Initial residual = 0.0492433, Final residual = 0.00147698, No Iterations 2
time step continuity errors : sum local = 0.00245365, global = -1.05969e-05, cumulative = -0.000825305
DICPCG:  Solving for p_rgh, Initial residual = 0.00145648, Final residual = 6.60843e-05, No Iterations 9
time step continuity errors : sum local = 0.000117009, global = -3.13633e-05, cumulative = -0.000856669
DICPCG:  Solving for p_rgh, Initial residual = 0.00015001, Final residual = 9.30168e-08, No Iterations 37
time step continuity errors : sum local = 1.64671e-07, global = -1.04671e-10, cumulative = -0.000856669
ExecutionTime = 0.7 s  ClockTime = 1 s

Courant Number mean: 0.110654 max: 0.593295
Interface Courant Number mean: 0.0175058 max: 0.498915
deltaT = 0.00833333
Time = 0.433333

smoothSolver:  Solving for alpha.water, Initial residual = 0.0124105, Final residual = 5.13895e-10, No Iterations 4
Phase-1 volume fraction = 0.069281  Min(alpha.water) = -5.96601e-08  Max(alpha.water) = 1
MULES: Correcting alpha.water
MULES: Correcting alpha.water
Phase-1 volume fraction = 0.069281  Min(alpha.water) = -0.000950344  Max(alpha.water) = 1.00007
DICPCG:  Solving for p_rgh, Initial residual = 0.0471076, Final residual = 0.00141089, No Iterations 2
time step continuity errors : sum local = 0.00250256, global = -9.36908e-06, cumulative = -0.000866038
DICPCG:  Solving for p_rgh, Initial residual = 0.00139619, Final residual = 6.12538e-05, No Iterations 9
time step continuity errors : sum local = 0.000115372, global = -2.75535e-05, cumulative = -0.000893591
DICPCG:  Solving for p_rgh, Initial residual = 0.000140926, Final residual = 8.41739e-08, No Iterations 37
time step continuity errors : sum local = 1.58547e-07, global = 3.37599e-09, cumulative = -0.000893588
ExecutionTime = 0.71 s  ClockTime = 1 s

Courant Number mean: 0.111342 max: 0.593295
Interface Courant Number mean: 0.017982 max: 0.499314
deltaT = 0.00833333
Time = 0.441667

smoothSolver:  Solving for alpha.water, Initial residual = 0.0124757, Final residual = 4.47728e-10, No Iterations 4
Phase-1 volume fraction = 0.0704248  Min(alpha.water) = -1.03823e-07  Max(alpha.water) = 1
MULES: Correcting alpha.water
MULES: Correcting alpha.water
Phase-1 volume fraction = 0.0704248  Min(alpha.water) = -0.000882464  Max(alpha.water) = 1.00037
DICPCG:  Solving for p_rgh, Initial residual = 0.0454889, Final residual = 0.00126655, No Iterations 2
time step continuity errors : sum local = 0.00238172, global = -8.81303e-06, cumulative = -0.000902401
DICPCG:  Solving for p_rgh, Initial residual = 0.00125633, Final residual = 5.30586e-05, No Iterations 9
time step continuity errors : sum local = 0.000105705, global = -1.90605e-05, cumulative = -0.000921461
DICPCG:  Solving for p_rgh, Initial residual = 0.000130892, Final residual = 9.22721e-08, No Iterations 36
time step continuity errors : sum local = 1.8382e-07, global = 9.54291e-10, cumulative = -0.00092146
ExecutionTime = 0.72 s  ClockTime = 1 s

Courant Number mean: 0.112458 max: 0.593295
Interface Courant Number mean: 0.0183017 max: 0.499673
deltaT = 0.00833333
Time = 0.45

smoothSolver:  Solving for alpha.water, Initial residual = 0.0123139, Final residual = 4.37271e-10, No Iterations 4
Phase-1 volume fraction = 0.0715686  Min(alpha.water) = -4.37071e-08  Max(alpha.water) = 1
MULES: Correcting alpha.water
MULES: Correcting alpha.water
Phase-1 volume fraction = 0.0715686  Min(alpha.water) = -0.00083674  Max(alpha.water) = 1.00032
DICPCG:  Solving for p_rgh, Initial residual = 0.045627, Final residual = 0.00133156, No Iterations 2
time step continuity errors : sum local = 0.00260869, global = -1.03323e-05, cumulative = -0.000931793
DICPCG:  Solving for p_rgh, Initial residual = 0.00134015, Final residual = 5.71011e-05, No Iterations 9
time step continuity errors : sum local = 0.000118363, global = -3.16071e-05, cumulative = -0.0009634
DICPCG:  Solving for p_rgh, Initial residual = 0.000159989, Final residual = 8.37204e-08, No Iterations 37
time step continuity errors : sum local = 1.73528e-07, global = -5.98007e-09, cumulative = -0.000963406
ExecutionTime = 0.74 s  ClockTime = 1 s

Courant Number mean: 0.114224 max: 0.593295
Interface Courant Number mean: 0.0177341 max: 0.499945
deltaT = 0.00833333
Time = 0.458333

smoothSolver:  Solving for alpha.water, Initial residual = 0.0119815, Final residual = 4.43223e-10, No Iterations 4
Phase-1 volume fraction = 0.0727124  Min(alpha.water) = -3.73053e-08  Max(alpha.water) = 1
MULES: Correcting alpha.water
MULES: Correcting alpha.water
Phase-1 volume fraction = 0.0727124  Min(alpha.water) = -0.000784886  Max(alpha.water) = 1.00023
DICPCG:  Solving for p_rgh, Initial residual = 0.0425399, Final residual = 0.00147976, No Iterations 2
time step continuity errors : sum local = 0.00290163, global = -1.19197e-05, cumulative = -0.000975325
DICPCG:  Solving for p_rgh, Initial residual = 0.00150998, Final residual = 5.89744e-05, No Iterations 9
time step continuity errors : sum local = 0.000121983, global = -1.26982e-05, cumulative = -0.000988024
DICPCG:  Solving for p_rgh, Initial residual = 0.00018232, Final residual = 9.26697e-08, No Iterations 38
time step continuity errors : sum local = 1.91632e-07, global = 4.98675e-09, cumulative = -0.000988019
ExecutionTime = 0.75 s  ClockTime = 1 s

Courant Number mean: 0.116172 max: 0.593295
Interface Courant Number mean: 0.0187171 max: 0.500106
deltaT = 0.00833333
Time = 0.466667

smoothSolver:  Solving for alpha.water, Initial residual = 0.0119299, Final residual = 4.48437e-10, No Iterations 4
Phase-1 volume fraction = 0.0738562  Min(alpha.water) = -3.7244e-07  Max(alpha.water) = 1
MULES: Correcting alpha.water
MULES: Correcting alpha.water
Phase-1 volume fraction = 0.0738562  Min(alpha.water) = -0.000728378  Max(alpha.water) = 1.00016
DICPCG:  Solving for p_rgh, Initial residual = 0.0419487, Final residual = 0.00161296, No Iterations 2
time step continuity errors : sum local = 0.00320526, global = -1.39757e-05, cumulative = -0.00100199
DICPCG:  Solving for p_rgh, Initial residual = 0.00166517, Final residual = 6.53135e-05, No Iterations 9
time step continuity errors : sum local = 0.000136292, global = -1.19934e-05, cumulative = -0.00101399
DICPCG:  Solving for p_rgh, Initial residual = 0.000202172, Final residual = 9.4904e-08, No Iterations 38
time step continuity errors : sum local = 1.97982e-07, global = 2.98203e-09, cumulative = -0.00101398
ExecutionTime = 0.77 s  ClockTime = 1 s

Courant Number mean: 0.118208 max: 0.593295
Interface Courant Number mean: 0.0202729 max: 0.500153
deltaT = 0.00833333
Time = 0.475

smoothSolver:  Solving for alpha.water, Initial residual = 0.0122245, Final residual = 4.87909e-10, No Iterations 4
Phase-1 volume fraction = 0.075  Min(alpha.water) = -2.69686e-08  Max(alpha.water) = 1
MULES: Correcting alpha.water
MULES: Correcting alpha.water
Phase-1 volume fraction = 0.075  Min(alpha.water) = -0.000683519  Max(alpha.water) = 1.00012
DICPCG:  Solving for p_rgh, Initial residual = 0.0420157, Final residual = 0.00177491, No Iterations 2
time step continuity errors : sum local = 0.00355905, global = -1.3652e-05, cumulative = -0.00102764
DICPCG:  Solving for p_rgh, Initial residual = 0.00183391, Final residual = 8.85337e-05, No Iterations 8
time step continuity errors : sum local = 0.000186304, global = -4.18567e-05, cumulative = -0.00106949
DICPCG:  Solving for p_rgh, Initial residual = 0.00024353, Final residual = 8.82378e-08, No Iterations 39
time step continuity errors : sum local = 1.8562e-07, global = -7.97269e-09, cumulative = -0.0010695
ExecutionTime = 0.78 s  ClockTime = 1 s

Courant Number mean: 0.120148 max: 0.593295
Interface Courant Number mean: 0.0205224 max: 0.5001
deltaT = 0.00833333
Time = 0.483333

smoothSolver:  Solving for alpha.water, Initial residual = 0.0124319, Final residual = 5.49815e-10, No Iterations 4
Phase-1 volume fraction = 0.0761438  Min(alpha.water) = -2.27874e-08  Max(alpha.water) = 1
MULES: Correcting alpha.water
MULES: Correcting alpha.water
Phase-1 volume fraction = 0.0761438  Min(alpha.water) = -0.000545247  Max(alpha.water) = 1.00009
DICPCG:  Solving for p_rgh, Initial residual = 0.0409845, Final residual = 0.0017351, No Iterations 2
time step continuity errors : sum local = 0.00352698, global = -1.24233e-05, cumulative = -0.00108192
DICPCG:  Solving for p_rgh, Initial residual = 0.00178491, Final residual = 8.65993e-05, No Iterations 8
time step continuity errors : sum local = 0.000184787, global = -4.77504e-05, cumulative = -0.00112968
DICPCG:  Solving for p_rgh, Initial residual = 0.000245759, Final residual = 8.79785e-08, No Iterations 39
time step continuity errors : sum local = 1.87652e-07, global = -4.56673e-09, cumulative = -0.00112968
ExecutionTime = 0.79 s  ClockTime = 1 s

Courant Number mean: 0.12227 max: 0.593296
Interface Courant Number mean: 0.0203474 max: 0.500391
deltaT = 0.00833333
Time = 0.491667

smoothSolver:  Solving for alpha.water, Initial residual = 0.0127553, Final residual = 6.97136e-10, No Iterations 4
Phase-1 volume fraction = 0.0772876  Min(alpha.water) = -1.91164e-08  Max(alpha.water) = 1
MULES: Correcting alpha.water
MULES: Correcting alpha.water
Phase-1 volume fraction = 0.0772876  Min(alpha.water) = -0.000581743  Max(alpha.water) = 1.00011
DICPCG:  Solving for p_rgh, Initial residual = 0.0406036, Final residual = 0.00172742, No Iterations 2
time step continuity errors : sum local = 0.00364147, global = -1.02748e-05, cumulative = -0.00113995
DICPCG:  Solving for p_rgh, Initial residual = 0.00177639, Final residual = 8.36149e-05, No Iterations 8
time step continuity errors : sum local = 0.000185124, global = -5.19416e-05, cumulative = -0.0011919
DICPCG:  Solving for p_rgh, Initial residual = 0.000246597, Final residual = 9.8912e-08, No Iterations 39
time step continuity errors : sum local = 2.18898e-07, global = 7.6582e-09, cumulative = -0.00119189
ExecutionTime = 0.79 s  ClockTime = 1 s

Courant Number mean: 0.124687 max: 0.593296
Interface Courant Number mean: 0.0211876 max: 0.499805
deltaT = 0.00833333
Time = 0.5

smoothSolver:  Solving for alpha.water, Initial residual = 0.0130333, Final residual = 9.14142e-10, No Iterations 4
Phase-1 volume fraction = 0.0784314  Min(alpha.water) = -1.58408e-08  Max(alpha.water) = 1
MULES: Correcting alpha.water
MULES: Correcting alpha.water
Phase-1 volume fraction = 0.0784314  Min(alpha.water) = -0.00057903  Max(alpha.water) = 1.00011
DICPCG:  Solving for p_rgh, Initial residual = 0.0396018, Final residual = 0.00172851, No Iterations 2
time step continuity errors : sum local = 0.00381166, global = -8.93848e-06, cumulative = -0.00120083
DICPCG:  Solving for p_rgh, Initial residual = 0.00178277, Final residual = 7.83672e-05, No Iterations 8
time step continuity errors : sum local = 0.000181398, global = -6.37649e-05, cumulative = -0.00126459
DICPCG:  Solving for p_rgh, Initial residual = 0.000250243, Final residual = 9.70817e-08, No Iterations 41
time step continuity errors : sum local = 2.24646e-07, global = 1.84905e-09, cumulative = -0.00126459
ExecutionTime = 0.81 s  ClockTime = 1 s

Courant Number mean: 0.127479 max: 0.593296
Interface Courant Number mean: 0.0219778 max: 0.49963
deltaT = 0.00833333
Time = 0.508333

smoothSolver:  Solving for alpha.water, Initial residual = 0.0133507, Final residual = 1.1902e-09, No Iterations 4
Phase-1 volume fraction = 0.0795752  Min(alpha.water) = -1.28749e-08  Max(alpha.water) = 1
MULES: Correcting alpha.water
MULES: Correcting alpha.water
Phase-1 volume fraction = 0.0795752  Min(alpha.water) = -0.000622903  Max(alpha.water) = 1.0001
DICPCG:  Solving for p_rgh, Initial residual = 0.0356272, Final residual = 0.00164713, No Iterations 2
time step continuity errors : sum local = 0.00377342, global = -8.40006e-06, cumulative = -0.00127299
DICPCG:  Solving for p_rgh, Initial residual = 0.00171885, Final residual = 7.74829e-05, No Iterations 8
time step continuity errors : sum local = 0.000185372, global = -5.63008e-05, cumulative = -0.00132929
DICPCG:  Solving for p_rgh, Initial residual = 0.000250126, Final residual = 9.35676e-08, No Iterations 40
time step continuity errors : sum local = 2.23774e-07, global = 6.82242e-09, cumulative = -0.00132928
ExecutionTime = 0.82 s  ClockTime = 1 s

Courant Number mean: 0.130846 max: 0.593297
Interface Courant Number mean: 0.0228007 max: 0.499476
deltaT = 0.00833333
Time = 0.516667

smoothSolver:  Solving for alpha.water, Initial residual = 0.0134963, Final residual = 1.50571e-09, No Iterations 4
Phase-1 volume fraction = 0.0807189  Min(alpha.water) = -1.01765e-08  Max(alpha.water) = 1
MULES: Correcting alpha.water
MULES: Correcting alpha.water
Phase-1 volume fraction = 0.0807189  Min(alpha.water) = -0.000638977  Max(alpha.water) = 1.0001
DICPCG:  Solving for p_rgh, Initial residual = 0.0342382, Final residual = 0.00156912, No Iterations 2
time step continuity errors : sum local = 0.0037046, global = -8.41342e-06, cumulative = -0.0013377
DICPCG:  Solving for p_rgh, Initial residual = 0.0016435, Final residual = 6.92513e-05, No Iterations 8
time step continuity errors : sum local = 0.000170452, global = -5.3495e-05, cumulative = -0.00139119
DICPCG:  Solving for p_rgh, Initial residual = 0.000224448, Final residual = 9.74922e-08, No Iterations 39
time step continuity errors : sum local = 2.39887e-07, global = 1.61393e-08, cumulative = -0.00139118
ExecutionTime = 0.83 s  ClockTime = 1 s

Courant Number mean: 0.13426 max: 0.593297
Interface Courant Number mean: 0.0245493 max: 0.499364
deltaT = 0.00833333
Time = 0.525

smoothSolver:  Solving for alpha.water, Initial residual = 0.0136205, Final residual = 1.77132e-09, No Iterations 4
Phase-1 volume fraction = 0.0818627  Min(alpha.water) = -7.60734e-09  Max(alpha.water) = 1
MULES: Correcting alpha.water
MULES: Correcting alpha.water
Phase-1 volume fraction = 0.0818627  Min(alpha.water) = -0.000248541  Max(alpha.water) = 1.00009
DICPCG:  Solving for p_rgh, Initial residual = 0.0348474, Final residual = 0.00159285, No Iterations 2
time step continuity errors : sum local = 0.00389816, global = -7.6371e-06, cumulative = -0.00139881
DICPCG:  Solving for p_rgh, Initial residual = 0.00165835, Final residual = 7.78104e-05, No Iterations 8
time step continuity errors : sum local = 0.000198574, global = -6.28589e-05, cumulative = -0.00146167
DICPCG:  Solving for p_rgh, Initial residual = 0.00022441, Final residual = 9.20553e-08, No Iterations 41
time step continuity errors : sum local = 2.34807e-07, global = -6.11835e-09, cumulative = -0.00146168
ExecutionTime = 0.84 s  ClockTime = 1 s

Courant Number mean: 0.13808 max: 0.593297
Interface Courant Number mean: 0.0270768 max: 0.499303
deltaT = 0.00833333
Time = 0.533333

smoothSolver:  Solving for alpha.water, Initial residual = 0.0139364, Final residual = 1.85233e-09, No Iterations 4
Phase-1 volume fraction = 0.0830065  Min(alpha.water) = -5.2053e-09  Max(alpha.water) = 1
MULES: Correcting alpha.water
MULES: Correcting alpha.water
Phase-1 volume fraction = 0.0830065  Min(alpha.water) = -0.000279125  Max(alpha.water) = 1.00008
DICPCG:  Solving for p_rgh, Initial residual = 0.0330101, Final residual = 0.00139582, No Iterations 2
time step continuity errors : sum local = 0.00357176, global = -6.43228e-06, cumulative = -0.00146811
DICPCG:  Solving for p_rgh, Initial residual = 0.00145307, Final residual = 6.77737e-05, No Iterations 8
time step continuity errors : sum local = 0.000180649, global = -4.45988e-05, cumulative = -0.00151271
DICPCG:  Solving for p_rgh, Initial residual = 0.000194746, Final residual = 9.6788e-08, No Iterations 39
time step continuity errors : sum local = 2.57876e-07, global = 1.54229e-08, cumulative = -0.00151269
ExecutionTime = 0.85 s  ClockTime = 1 s

Courant Number mean: 0.142054 max: 0.593297
Interface Courant Number mean: 0.0272234 max: 0.499294
deltaT = 0.00833333
Time = 0.541667

smoothSolver:  Solving for alpha.water, Initial residual = 0.0143284, Final residual = 2.21102e-09, No Iterations 4
Phase-1 volume fraction = 0.0841503  Min(alpha.water) = -4.31208e-09  Max(alpha.water) = 1
MULES: Correcting alpha.water
MULES: Correcting alpha.water
[...]
DICPCG:  Solving for p_rgh, Initial residual = 2.64466e-05, Final residual = 8.05739e-08, No Iterations 21
time step continuity errors : sum local = 4.67639e-07, global = 3.08956e-09, cumulative = 0.00768466
ExecutionTime = 9.29 s  ClockTime = 8 s

Courant Number mean: 0.130537 max: 0.745223
Interface Courant Number mean: 0.0523291 max: 0.588168
deltaT = 0.00555556
Time = 4.89444

smoothSolver:  Solving for alpha.water, Initial residual = 0.00725205, Final residual = 2.19552e-10, No Iterations 4
Phase-1 volume fraction = 0.565321  Min(alpha.water) = -5.95408e-10  Max(alpha.water) = 1.00001
MULES: Correcting alpha.water
MULES: Correcting alpha.water
Phase-1 volume fraction = 0.565317  Min(alpha.water) = -5.23129e-05  Max(alpha.water) = 1.00012
DICPCG:  Solving for p_rgh, Initial residual = 0.00812444, Final residual = 0.000185514, No Iterations 2
time step continuity errors : sum local = 0.00107756, global = 0.000101676, cumulative = 0.00778634
DICPCG:  Solving for p_rgh, Initial residual = 0.000208185, Final residual = 8.73796e-06, No Iterations 7
time step continuity errors : sum local = 5.0709e-05, global = -3.03751e-07, cumulative = 0.00778603
DICPCG:  Solving for p_rgh, Initial residual = 2.79654e-05, Final residual = 7.39269e-08, No Iterations 22
time step continuity errors : sum local = 4.29247e-07, global = 9.41648e-09, cumulative = 0.00778604
ExecutionTime = 9.29 s  ClockTime = 8 s

Courant Number mean: 0.13034 max: 0.710944
Interface Courant Number mean: 0.0517324 max: 0.581229
deltaT = 0.00555556
Time = 4.9

smoothSolver:  Solving for alpha.water, Initial residual = 0.00726718, Final residual = 2.29114e-10, No Iterations 4
Phase-1 volume fraction = 0.56572  Min(alpha.water) = -5.39399e-10  Max(alpha.water) = 1.00001
MULES: Correcting alpha.water
MULES: Correcting alpha.water
Phase-1 volume fraction = 0.565717  Min(alpha.water) = -4.53849e-05  Max(alpha.water) = 1.00015
DICPCG:  Solving for p_rgh, Initial residual = 0.00820949, Final residual = 0.000190191, No Iterations 2
time step continuity errors : sum local = 0.00111105, global = 7.96235e-05, cumulative = 0.00786566
DICPCG:  Solving for p_rgh, Initial residual = 0.000213842, Final residual = 8.9391e-06, No Iterations 7
time step continuity errors : sum local = 5.21793e-05, global = -1.50302e-06, cumulative = 0.00786416
DICPCG:  Solving for p_rgh, Initial residual = 2.86471e-05, Final residual = 9.34885e-08, No Iterations 24
time step continuity errors : sum local = 5.46124e-07, global = -6.44059e-08, cumulative = 0.0078641
ExecutionTime = 9.32 s  ClockTime = 8 s

Courant Number mean: 0.130193 max: 0.671854
Interface Courant Number mean: 0.0513087 max: 0.585818
deltaT = 0.00625
Time = 4.90625

smoothSolver:  Solving for alpha.water, Initial residual = 0.00817978, Final residual = 4.11e-10, No Iterations 4
Phase-1 volume fraction = 0.566171  Min(alpha.water) = -4.79836e-10  Max(alpha.water) = 1
MULES: Correcting alpha.water
MULES: Correcting alpha.water
Phase-1 volume fraction = 0.566169  Min(alpha.water) = -4.9256e-05  Max(alpha.water) = 1.00029
DICPCG:  Solving for p_rgh, Initial residual = 0.00908582, Final residual = 0.000214701, No Iterations 2
time step continuity errors : sum local = 0.00154843, global = 5.99561e-05, cumulative = 0.00792405
DICPCG:  Solving for p_rgh, Initial residual = 0.000243045, Final residual = 1.05332e-05, No Iterations 7
time step continuity errors : sum local = 7.59097e-05, global = -8.83892e-06, cumulative = 0.00791521
DICPCG:  Solving for p_rgh, Initial residual = 3.54521e-05, Final residual = 9.70773e-08, No Iterations 25
time step continuity errors : sum local = 7.00345e-07, global = 1.78166e-08, cumulative = 0.00791523
ExecutionTime = 9.33 s  ClockTime = 8 s

Courant Number mean: 0.146247 max: 0.703634
Interface Courant Number mean: 0.0576477 max: 0.67166
deltaT = 0.00625
Time = 4.9125

smoothSolver:  Solving for alpha.water, Initial residual = 0.00816714, Final residual = 3.64948e-10, No Iterations 4
Phase-1 volume fraction = 0.566619  Min(alpha.water) = -2.59257e-07  Max(alpha.water) = 1
MULES: Correcting alpha.water
MULES: Correcting alpha.water
Phase-1 volume fraction = 0.566618  Min(alpha.water) = -6.95769e-05  Max(alpha.water) = 1.00031
DICPCG:  Solving for p_rgh, Initial residual = 0.00920918, Final residual = 0.000215691, No Iterations 2
time step continuity errors : sum local = 0.00157369, global = 3.69814e-05, cumulative = 0.00795221
DICPCG:  Solving for p_rgh, Initial residual = 0.000242996, Final residual = 9.80446e-06, No Iterations 7
time step continuity errors : sum local = 7.14776e-05, global = -2.73899e-06, cumulative = 0.00794947
DICPCG:  Solving for p_rgh, Initial residual = 3.40464e-05, Final residual = 7.31806e-08, No Iterations 25
time step continuity errors : sum local = 5.33906e-07, global = -2.70119e-08, cumulative = 0.00794945
ExecutionTime = 9.34 s  ClockTime = 8 s

Courant Number mean: 0.145983 max: 0.675218
Interface Courant Number mean: 0.0574816 max: 0.675218
deltaT = 0.00625
Time = 4.91875

smoothSolver:  Solving for alpha.water, Initial residual = 0.00818054, Final residual = 2.80556e-10, No Iterations 4
Phase-1 volume fraction = 0.567071  Min(alpha.water) = -2.06229e-07  Max(alpha.water) = 1
MULES: Correcting alpha.water
MULES: Correcting alpha.water
Phase-1 volume fraction = 0.567071  Min(alpha.water) = -8.64856e-05  Max(alpha.water) = 1.00036
DICPCG:  Solving for p_rgh, Initial residual = 0.00900123, Final residual = 0.000214286, No Iterations 2
time step continuity errors : sum local = 0.00158578, global = 3.37534e-05, cumulative = 0.0079832
DICPCG:  Solving for p_rgh, Initial residual = 0.000242839, Final residual = 1.00829e-05, No Iterations 7
time step continuity errors : sum local = 7.45477e-05, global = -3.96743e-06, cumulative = 0.00797923
DICPCG:  Solving for p_rgh, Initial residual = 3.38903e-05, Final residual = 7.52523e-08, No Iterations 25
time step continuity errors : sum local = 5.56852e-07, global = -2.44984e-08, cumulative = 0.00797921
ExecutionTime = 9.35 s  ClockTime = 8 s

Courant Number mean: 0.145708 max: 0.683255
Interface Courant Number mean: 0.0575779 max: 0.683255
deltaT = 0.00625
Time = 4.925

smoothSolver:  Solving for alpha.water, Initial residual = 0.00818228, Final residual = 1.69609e-10, No Iterations 4
Phase-1 volume fraction = 0.567527  Min(alpha.water) = -1.5676e-07  Max(alpha.water) = 1
MULES: Correcting alpha.water
MULES: Correcting alpha.water
Phase-1 volume fraction = 0.567527  Min(alpha.water) = -8.75708e-05  Max(alpha.water) = 1.00007
DICPCG:  Solving for p_rgh, Initial residual = 0.00873266, Final residual = 0.000221274, No Iterations 2
time step continuity errors : sum local = 0.00165009, global = 7.07078e-05, cumulative = 0.00804992
DICPCG:  Solving for p_rgh, Initial residual = 0.000249461, Final residual = 1.11511e-05, No Iterations 7
time step continuity errors : sum local = 8.3074e-05, global = -5.55586e-06, cumulative = 0.00804436
DICPCG:  Solving for p_rgh, Initial residual = 3.47678e-05, Final residual = 9.82375e-08, No Iterations 24
time step continuity errors : sum local = 7.32435e-07, global = -1.85756e-08, cumulative = 0.00804434
ExecutionTime = 9.36 s  ClockTime = 8 s

Courant Number mean: 0.145536 max: 0.67671
Interface Courant Number mean: 0.0580135 max: 0.67671
deltaT = 0.00625
Time = 4.93125

smoothSolver:  Solving for alpha.water, Initial residual = 0.00816874, Final residual = 9.76377e-09, No Iterations 3
Phase-1 volume fraction = 0.567988  Min(alpha.water) = -1.16972e-07  Max(alpha.water) = 1
MULES: Correcting alpha.water
MULES: Correcting alpha.water
Phase-1 volume fraction = 0.567988  Min(alpha.water) = -5.09055e-05  Max(alpha.water) = 1.00007
DICPCG:  Solving for p_rgh, Initial residual = 0.00879455, Final residual = 0.000233437, No Iterations 2
time step continuity errors : sum local = 0.00175056, global = 8.23884e-05, cumulative = 0.00812673
DICPCG:  Solving for p_rgh, Initial residual = 0.000261713, Final residual = 1.20909e-05, No Iterations 7
time step continuity errors : sum local = 9.05904e-05, global = -5.11259e-07, cumulative = 0.00812622
DICPCG:  Solving for p_rgh, Initial residual = 3.60093e-05, Final residual = 8.41024e-08, No Iterations 23
time step continuity errors : sum local = 6.30467e-07, global = 1.24242e-07, cumulative = 0.00812634
ExecutionTime = 9.37 s  ClockTime = 8 s

Courant Number mean: 0.145414 max: 0.675443
Interface Courant Number mean: 0.0582151 max: 0.675443
deltaT = 0.00625
Time = 4.9375

smoothSolver:  Solving for alpha.water, Initial residual = 0.00813043, Final residual = 8.38786e-11, No Iterations 4
Phase-1 volume fraction = 0.568454  Min(alpha.water) = -8.77485e-08  Max(alpha.water) = 1
MULES: Correcting alpha.water
MULES: Correcting alpha.water
Phase-1 volume fraction = 0.568454  Min(alpha.water) = -6.81029e-05  Max(alpha.water) = 1.00006
DICPCG:  Solving for p_rgh, Initial residual = 0.00891938, Final residual = 0.00023977, No Iterations 2
time step continuity errors : sum local = 0.00179832, global = 9.72356e-05, cumulative = 0.00822358
DICPCG:  Solving for p_rgh, Initial residual = 0.000269035, Final residual = 1.24977e-05, No Iterations 7
time step continuity errors : sum local = 9.3675e-05, global = -1.72033e-06, cumulative = 0.00822186
DICPCG:  Solving for p_rgh, Initial residual = 3.7005e-05, Final residual = 7.46161e-08, No Iterations 23
time step continuity errors : sum local = 5.59507e-07, global = 1.2635e-07, cumulative = 0.00822199
ExecutionTime = 9.38 s  ClockTime = 8 s

Courant Number mean: 0.145294 max: 0.669155
Interface Courant Number mean: 0.0578765 max: 0.669155
deltaT = 0.00625
Time = 4.94375

smoothSolver:  Solving for alpha.water, Initial residual = 0.00810148, Final residual = 8.30494e-11, No Iterations 4
Phase-1 volume fraction = 0.568926  Min(alpha.water) = -6.71617e-08  Max(alpha.water) = 1
MULES: Correcting alpha.water
MULES: Correcting alpha.water
Phase-1 volume fraction = 0.568927  Min(alpha.water) = -7.88844e-05  Max(alpha.water) = 1.00008
DICPCG:  Solving for p_rgh, Initial residual = 0.00935169, Final residual = 0.000260324, No Iterations 2
time step continuity errors : sum local = 0.00197506, global = 0.000128341, cumulative = 0.00835033
DICPCG:  Solving for p_rgh, Initial residual = 0.000288892, Final residual = 1.42776e-05, No Iterations 7
time step continuity errors : sum local = 0.000108236, global = -2.65416e-06, cumulative = 0.00834767
DICPCG:  Solving for p_rgh, Initial residual = 4.03825e-05, Final residual = 9.85705e-08, No Iterations 23
time step continuity errors : sum local = 7.476e-07, global = 1.4629e-07, cumulative = 0.00834782
ExecutionTime = 9.38 s  ClockTime = 8 s

Courant Number mean: 0.145144 max: 0.665615
Interface Courant Number mean: 0.0577289 max: 0.665615
deltaT = 0.00625
Time = 4.95

smoothSolver:  Solving for alpha.water, Initial residual = 0.0080903, Final residual = 6.79434e-11, No Iterations 4
Phase-1 volume fraction = 0.569405  Min(alpha.water) = -4.34714e-08  Max(alpha.water) = 1
MULES: Correcting alpha.water
MULES: Correcting alpha.water
Phase-1 volume fraction = 0.569406  Min(alpha.water) = -3.4992e-05  Max(alpha.water) = 1.00004
DICPCG:  Solving for p_rgh, Initial residual = 0.00965719, Final residual = 0.000275255, No Iterations 2
time step continuity errors : sum local = 0.00207877, global = 0.000180654, cumulative = 0.00852847
DICPCG:  Solving for p_rgh, Initial residual = 0.000304618, Final residual = 9.74126e-06, No Iterations 8
time step continuity errors : sum local = 7.35235e-05, global = -5.35591e-06, cumulative = 0.00852312
DICPCG:  Solving for p_rgh, Initial residual = 4.03873e-05, Final residual = 8.02559e-08, No Iterations 23
time step continuity errors : sum local = 6.06032e-07, global = 9.12841e-08, cumulative = 0.00852321
ExecutionTime = 9.4 s  ClockTime = 8 s

Courant Number mean: 0.145005 max: 0.66312
Interface Courant Number mean: 0.0575987 max: 0.66312
deltaT = 0.00714286
Time = 4.95714

smoothSolver:  Solving for alpha.water, Initial residual = 0.00925939, Final residual = 1.24476e-10, No Iterations 4
Phase-1 volume fraction = 0.56996  Min(alpha.water) = -3.5615e-09  Max(alpha.water) = 1
MULES: Correcting alpha.water
MULES: Correcting alpha.water
Phase-1 volume fraction = 0.569961  Min(alpha.water) = -3.70304e-05  Max(alpha.water) = 1.00003
DICPCG:  Solving for p_rgh, Initial residual = 0.010437, Final residual = 0.000294148, No Iterations 2
time step continuity errors : sum local = 0.00279213, global = 0.000233073, cumulative = 0.00875628
DICPCG:  Solving for p_rgh, Initial residual = 0.000328472, Final residual = 1.07508e-05, No Iterations 8
time step continuity errors : sum local = 0.000101994, global = -1.06371e-05, cumulative = 0.00874564
DICPCG:  Solving for p_rgh, Initial residual = 4.78644e-05, Final residual = 9.29505e-08, No Iterations 23
time step continuity errors : sum local = 8.8236e-07, global = 1.22008e-07, cumulative = 0.00874577
ExecutionTime = 9.41 s  ClockTime = 8 s

Courant Number mean: 0.165535 max: 0.758109
Interface Courant Number mean: 0.0656617 max: 0.749616
deltaT = 0.00714286
Time = 4.96429

smoothSolver:  Solving for alpha.water, Initial residual = 0.00930888, Final residual = 1.20947e-10, No Iterations 4
Phase-1 volume fraction = 0.57052  Min(alpha.water) = -3.18902e-09  Max(alpha.water) = 1
MULES: Correcting alpha.water
MULES: Correcting alpha.water
Phase-1 volume fraction = 0.570523  Min(alpha.water) = -4.03953e-05  Max(alpha.water) = 1.00005
DICPCG:  Solving for p_rgh, Initial residual = 0.0108288, Final residual = 0.00028051, No Iterations 2
time step continuity errors : sum local = 0.00267073, global = 0.000204352, cumulative = 0.00895012
DICPCG:  Solving for p_rgh, Initial residual = 0.000315659, Final residual = 1.08636e-05, No Iterations 8
time step continuity errors : sum local = 0.000103317, global = -6.91434e-06, cumulative = 0.0089432
DICPCG:  Solving for p_rgh, Initial residual = 4.77992e-05, Final residual = 9.45876e-08, No Iterations 22
time step continuity errors : sum local = 8.99834e-07, global = 8.49087e-08, cumulative = 0.00894329
ExecutionTime = 9.43 s  ClockTime = 8 s

Courant Number mean: 0.165378 max: 0.773238
Interface Courant Number mean: 0.0659094 max: 0.773238
deltaT = 0.00714286
Time = 4.97143

smoothSolver:  Solving for alpha.water, Initial residual = 0.00931529, Final residual = 1.29843e-10, No Iterations 4
Phase-1 volume fraction = 0.571088  Min(alpha.water) = -9.03503e-08  Max(alpha.water) = 1
MULES: Correcting alpha.water
MULES: Correcting alpha.water
Phase-1 volume fraction = 0.571091  Min(alpha.water) = -2.39592e-05  Max(alpha.water) = 1.00004
DICPCG:  Solving for p_rgh, Initial residual = 0.0114587, Final residual = 0.000301313, No Iterations 2
time step continuity errors : sum local = 0.00287838, global = 0.000186113, cumulative = 0.0091294
DICPCG:  Solving for p_rgh, Initial residual = 0.00033726, Final residual = 1.2273e-05, No Iterations 8
time step continuity errors : sum local = 0.000117013, global = -3.87281e-06, cumulative = 0.00912553
DICPCG:  Solving for p_rgh, Initial residual = 5.09256e-05, Final residual = 8.3433e-08, No Iterations 24
time step continuity errors : sum local = 7.95937e-07, global = 1.33497e-07, cumulative = 0.00912566
ExecutionTime = 9.44 s  ClockTime = 8 s

Courant Number mean: 0.165102 max: 0.787696
Interface Courant Number mean: 0.0662623 max: 0.785233
deltaT = 0.00714286
Time = 4.97857

smoothSolver:  Solving for alpha.water, Initial residual = 0.00928226, Final residual = 1.43979e-10, No Iterations 4
Phase-1 volume fraction = 0.571654  Min(alpha.water) = -8.05875e-08  Max(alpha.water) = 1
MULES: Correcting alpha.water
MULES: Correcting alpha.water
Phase-1 volume fraction = 0.571655  Min(alpha.water) = -2.37076e-05  Max(alpha.water) = 1.00006
DICPCG:  Solving for p_rgh, Initial residual = 0.0114092, Final residual = 0.00031892, No Iterations 2
time step continuity errors : sum local = 0.00300715, global = 0.000148261, cumulative = 0.00927392
DICPCG:  Solving for p_rgh, Initial residual = 0.000354922, Final residual = 1.28742e-05, No Iterations 8
time step continuity errors : sum local = 0.000121168, global = 4.53386e-07, cumulative = 0.00927438
DICPCG:  Solving for p_rgh, Initial residual = 5.59471e-05, Final residual = 9.94279e-08, No Iterations 23
time step continuity errors : sum local = 9.36288e-07, global = 1.40132e-07, cumulative = 0.00927452
ExecutionTime = 9.45 s  ClockTime = 8 s

Courant Number mean: 0.164726 max: 0.797556
Interface Courant Number mean: 0.0659332 max: 0.770621
deltaT = 0.00714286
Time = 4.98571

smoothSolver:  Solving for alpha.water, Initial residual = 0.0092621, Final residual = 1.55188e-10, No Iterations 4
Phase-1 volume fraction = 0.57222  Min(alpha.water) = -7.33436e-08  Max(alpha.water) = 1
MULES: Correcting alpha.water
MULES: Correcting alpha.water
Phase-1 volume fraction = 0.57222  Min(alpha.water) = -3.24918e-05  Max(alpha.water) = 1.00002
DICPCG:  Solving for p_rgh, Initial residual = 0.0115458, Final residual = 0.000340867, No Iterations 2
time step continuity errors : sum local = 0.00319898, global = 0.000147495, cumulative = 0.00942201
DICPCG:  Solving for p_rgh, Initial residual = 0.000375684, Final residual = 1.40385e-05, No Iterations 8
time step continuity errors : sum local = 0.000131592, global = 5.2317e-06, cumulative = 0.00942724
DICPCG:  Solving for p_rgh, Initial residual = 5.86391e-05, Final residual = 8.7639e-08, No Iterations 24
time step continuity errors : sum local = 8.21931e-07, global = 1.45253e-07, cumulative = 0.00942739
ExecutionTime = 9.46 s  ClockTime = 8 s

Courant Number mean: 0.164383 max: 0.815696
Interface Courant Number mean: 0.0656351 max: 0.752727
deltaT = 0.00714286
Time = 4.99286

smoothSolver:  Solving for alpha.water, Initial residual = 0.00926839, Final residual = 1.597e-10, No Iterations 4
Phase-1 volume fraction = 0.572786  Min(alpha.water) = -6.11209e-08  Max(alpha.water) = 1
MULES: Correcting alpha.water
MULES: Correcting alpha.water
Phase-1 volume fraction = 0.572784  Min(alpha.water) = -5.74405e-05  Max(alpha.water) = 1.00011
DICPCG:  Solving for p_rgh, Initial residual = 0.0122644, Final residual = 0.000350254, No Iterations 2
time step continuity errors : sum local = 0.00329383, global = 0.000189184, cumulative = 0.00961657
DICPCG:  Solving for p_rgh, Initial residual = 0.000382866, Final residual = 1.51595e-05, No Iterations 8
time step continuity errors : sum local = 0.00014237, global = 9.01496e-06, cumulative = 0.00962559
DICPCG:  Solving for p_rgh, Initial residual = 5.91194e-05, Final residual = 9.1541e-08, No Iterations 23
time step continuity errors : sum local = 8.60019e-07, global = 1.28269e-07, cumulative = 0.00962572
ExecutionTime = 9.47 s  ClockTime = 8 s

Courant Number mean: 0.164173 max: 0.81012
Interface Courant Number mean: 0.0656591 max: 0.734568
deltaT = 0.00714286
Time = 5

smoothSolver:  Solving for alpha.water, Initial residual = 0.00928128, Final residual = 1.66408e-10, No Iterations 4
Phase-1 volume fraction = 0.573344  Min(alpha.water) = -2.7902e-06  Max(alpha.water) = 1
MULES: Correcting alpha.water
MULES: Correcting alpha.water
Phase-1 volume fraction = 0.573341  Min(alpha.water) = -0.000105141  Max(alpha.water) = 1.00004
DICPCG:  Solving for p_rgh, Initial residual = 0.0124197, Final residual = 0.000320085, No Iterations 2
time step continuity errors : sum local = 0.00299701, global = 0.000217386, cumulative = 0.0098431
DICPCG:  Solving for p_rgh, Initial residual = 0.000350336, Final residual = 1.34282e-05, No Iterations 8
time step continuity errors : sum local = 0.000125629, global = 5.17153e-06, cumulative = 0.00984827
DICPCG:  Solving for p_rgh, Initial residual = 5.43582e-05, Final residual = 8.80276e-08, No Iterations 23
time step continuity errors : sum local = 8.23892e-07, global = 1.3003e-07, cumulative = 0.0098484
ExecutionTime = 9.48 s  ClockTime = 8 s

End

Finalising parallel run
